LAMMPS (7 Aug 2019)
# This is an input script that creates a mono disperse polymer brush bilayer
# A coarse grained bead-spring model is used for the polymers which are end
# grafted to the surfaces of 2 opposing FCC walls at random sites.

clear

#--- Initialization ---#

dimension     3
boundary      p p p
units         lj
atom_style    bond

#--- Moved to main.in ---#
variable      Temp   equal  1
variable      M      index  100 # 20 30 50 60             # The number of beads per chain
variable      xhi    equal  15                # The width of the polymer Brush
variable      yhi    equal  20                # The length of the polymer Brush
variable      zhi    equal  $(1.1 * v_M)  # The initial height of the simulation box the value is such that no overlaps occur
variable      zhi    equal  110.00000000000001421
variable      Nequil equal  50000000                       # Number of timesteps to equilibrate

variable       Nfreq   equal 10000                  # Calculate bin averages every this many timesteps
variable       Nevery  equal 100                    # Use input values every this many timesteps
variable       Nrepeat equal 10000/100
print "The number of beads per chain = $(v_M)"
The number of beads per chain = 100

#--- Create the simulation box ---#

region        sbox prism 0 15 0 20 0 110 0.0 0.0 0.0
create_box    2 sbox bond/types 1 extra/bond/per/atom 2 extra/special/per/atom 2
Created triclinic box = (0 0 0) to (15 20 110) with tilt (0 0 0)

mass          1 1.0                   # Grafted bead
mass          2 1.0                   # The rest of the beads on the chain

bond_style    fene                         # Finitely extensible linearly elastic bond between neighbouring beads
bond_coeff    1 30.0 1.5 1.0 1.0      # Values obtained from literature [Grest, Galushcko]
special_bonds fene                    #
pair_style	  lj/cut 1.122462         # LJ potential with rc=2^1/6
pair_coeff	  * * 1.0 1.0             # LJ potential acts between all atoms

#--- Create and read the molecule file ---#
python        BSMolf input 1 $M format i file BSMolf.py
python        BSMolf input 1 100 format i file BSMolf.py
python        BSMolf invoke    # Call the python function with number of beads to write the mol file
molecule      bs     bsmol.txt     # Read the Mol file to define the polymer chain
Read molecule bs:
  100 atoms with max type 2
  99 bonds with max type 1
  0 angles with max type 0
  0 dihedrals with max type 0
  0 impropers with max type 0

create_atoms  0 single $(lx/2) $(ly/2) $(lz/2) mol bs 24987 units box remap yes rotate 0 0 0 1
create_atoms  0 single 7.5 $(ly/2) $(lz/2) mol bs 24987 units box remap yes rotate 0 0 0 1
create_atoms  0 single 7.5 10 $(lz/2) mol bs 24987 units box remap yes rotate 0 0 0 1
create_atoms  0 single 7.5 10 55 mol bs 24987 units box remap yes rotate 0 0 0 1
Created 100 atoms

group         beads type 1 2
100 atoms in group beads

#--- Radius of gyration of the bottom brush chains ---#
compute       Rg beads gyration
fix           aveRg all ave/time 100 100 10000 c_Rg ave window 1000 file $(v_M).txt
fix           aveRg all ave/time 100 100 10000 c_Rg ave window 1000 file 100.txt
variable      scov_c equal 1/(3.14*(c_Rg)^2)

#dump           1 all image 100000 stg0.*.jpg type type zoom 2
#dump          2 all atom 50 dump.brush
#dump          3 all custom 100 dump.random.bin id x y z vx vy vz

#--- Minimize the system to obtain the initial structure for the PB bilayer ---#

minimize      0.0 1.0e-8 10000 100000
  update every 1 steps, delay 0 steps, check yes
Step Temp E_pair E_mol TotEng Press
0            0            0    20.629422    20.629422        -0.03
Loop time of 0.0743698 on 32 procs for 438 steps with 100 atoms

Minimization stats:
  Stopping criterion = force tolerance
  Energy initial, next-to-last, final =
  Force two-norm initial, final = 42.4264 7.25704e-09
  Force max component initial, final = 30 1.81276e-09
  Final line search alpha, max atom move = 1 1.81276e-09
  Iterations, force evaluations = 438 876

thermo_style  custom step etotal ke pe epair temp c_Rg v_scov_c
thermo        100000
thermo_modify flush yes

fix           nve_all all nve
fix           lang beads langevin 1 1 0.1 798753

#--- Run Equilibration ---#
run         50000000
Step TotEng KinEng PotEng E_pair Temp c_Rg v_scov_c
438    20.000548            0    20.000548            0            0    27.737326 0.0004139436
Averages over the last 251 of 502 rows, steps 25100000 to 50000438:
TotEng KinEng PotEng E_pair Temp c_Rg v_scov_c
21.9772 1.50339 20.4738 -0.0555076 1.01239 6.77332 0.00762672
Loop time of 1230.44 on 32 procs for 50000000 steps with 100 atoms

next M
jump FreeChain.in
