LAMMPS (7 Aug 2019)
#--- Brush Variables---#
variable      f      equal  1
variable      M      equal  $(v_f * 20)                 # The number of polymer chains on each brush
variable      M      equal  20
variable      N      string 30                 # The number of beads per chain
variable      xhi    equal  $(sqrt(v_f) * 20)                 # The width of the polymer Brush
variable      xhi    equal  20
variable      yhi    equal  $(sqrt(v_f) * 20)                 # The length of the polymer Brush
variable      yhi    equal  20
variable      wthick equal  3                  # The thickness of the walls wthick=1,2,3,4 gives 2,3,4,6 layers respectively

#--- Simulation Variables ---#
variable       Temp      index 1        #0.8 1 1.68                 #[Grest96]
variable       Tstep     equal 0.005                       # Timestep in Tau (default = 0.005)
variable       Nequil    equal 300000                       # Number of timesteps to equilibrate
variable       Ncomp     equal 700000                     # Number of timesteps to compress - until no more occilation of walls
variable       Nshear    equal 4000000      #2000000                      # Number of timesteps to shear - use approx 4ns for 10m/s
variable       Nthermo   equal 1000                        # Number of timesteps between thermo data prints
variable       Ndump_e   equal 10000
variable       Ndump_c   equal 10000                      # Number of timesteps per dump file (compression)
variable       Ndump_s   equal 10000                       # Number of timesteps per dump file (shear)
variable       Wall_v    index 0.5   #0.001 0.01 0.1 0.2 0.4 0.6 0.8 1 1.2 1.4 1.6 1.8 2   # 0.005 0.05 0.1 0.5 1.5 0.001 0.003 0.2 0.0002 2                      # Wall velocity (A/fs) - equal to 10 m/s
variable       Pcomp     index 1 0.5 2 0.05 4 8

include        MDPBB.in
# This is an input script that creates a mono disperse polymer brush bilayer
# A coarse grained bead-spring model is used for the polymers which are end
# grafted to the surfaces of 2 opposing FCC walls at random sites.

#--- Initialization ---#

dimension     3
boundary      p p f
units         lj
atom_style    bond

#--- Moved to main.in ---#
#variable      M      equal  50                # The number of polymer chains on each brush
#variable      N      string 80                # The number of beads per chain
#variable      xhi    equal  15                # The width of the polymer Brush
#variable      yhi    equal  20                # The length of the polymer Brush
#variable      wthick equal  3                 # The thickness of the walls wthick=1,2,3,4 gives 2,3,4,6 layers respectively

variable      zhi    equal  $(1.1 * 2 * v_N + (2 * v_wthick))  # The initial height of the simulation box the value is such that no overlaps occur
variable      zhi    equal  72
variable      z0     equal  $((v_zhi)/4 - (v_N)/30)          # This is the location at which to place the CoM of the molecule
variable      z0     equal  17

print "The number of grafted chains = $(v_M)"
The number of grafted chains = 20
print "The number of beads per chain = $(v_N)"
The number of beads per chain = 30

variable      check  equal count(all)         # The number of atoms in the system
variable      ntwall equal count(twall)       # The number of atoms in the top wall
variable      nbwall equal count(bwall)       # The number of atoms in the bottom wall
variable      s equal 234897  #45335              # Seed for the RNG

zhi = 72

#--- Create the simulation box ---#

region        sbox block 0 20 0 20 0 72
create_box    4 sbox bond/types 3 extra/bond/per/atom 12 extra/special/per/atom 2
Created orthogonal box = (0 0 0) to (20 20 72)

mass          1 2.0                   # Wall atoms that are not grafted
mass          2 1.0                   # Grafted bead
mass          3 1.0                   # The rest of the beads on the chain
mass          4 2.0                   # Wall atoms that the chains are grafted to

bond_style    hybrid fene harmonic    # Finitely extensible linearly elastic bond between neighbouring beads
#bond_coeff    1 fene 30.0 1.5 0.0 0.0      # Values obtained from literature [Grest, Galushcko]
bond_coeff    1 fene 30.0 30.0 0.0 0.0
bond_coeff    2 fene 30.0 30.0 0.0 0.0       # This is the grafting bond between the polymer and the wall atom
special_bonds fene                    #
pair_style	  lj/cut 1.122462         # LJ potential with rc=2^1/6
#pair_coeff	  * * 1.0 1.0             # LJ potential acts between all atoms
pair_coeff    1 1 0.0 0.0
pair_coeff    1 2 1.0 1.0
pair_coeff    1 3 1.0 1.0
pair_coeff    2 2 1.0 1.0
pair_coeff    2 3 1.0 1.0
pair_coeff    2 4 1.0 1.0
pair_coeff    3 3 1.0 1.0
pair_coeff    3 4 1.0 1.0
pair_coeff    4 4 0.0 0.0
neighbor      10 bin                  #
neigh_modify  one 4000

#--- Create and read the molecule file ---#
python        BSMolf input 1 $N format i file BSMolf.py
python        BSMolf input 1 30 format i file BSMolf.py
python        BSMolf invoke    # Call the python function with number of beads to write the mol file
molecule      bs     bsmol.txt     # Read the Mol file to define the polymer chain
Read molecule bs:
  30 atoms with max type 2
  29 bonds with max type 1
  0 angles with max type 0
  0 dihedrals with max type 0
  0 impropers with max type 0

#--- Define the FCC wall region ---#
region        wall  block 0 20 0 20 0 3
lattice       fcc 1
Lattice spacing in x,y,z = 1.5874 1.5874 1.5874

#--- Create the Top Brush  (At the bottom then rotate 180 degrees to top) ---#

create_atoms  1 region wall
Created 1352 atoms
group         twall  region wall
1352 atoms in group twall
#group         tsurf  region wsurf

# A loop to insert the Chains into the sim box
variable      i loop $M                                   # Index to insert N total number of chains
variable      i loop 20
label         loop                                        # Start of loop
variable      randni equal round(random(1,1352,$s))
variable      randni equal round(random(1,1352,234897))
variable      randatomi equal 850
variable      randzi equal z[850]
# if the chosen atom is not a surface atom then restart the loop
set           atom 850 type 4
  1 settings made for type
group         twg id 850
1 atoms in group twg
variable      twgcount equal count(twg)
twg contains 1
print         "i = $(v_i)"                                # The index i should always be equal to the number of atom in twg
i = 1
variable      x0 equal x[850]
variable      y0 equal y[850]
variable      check0 equal 1352
variable      b equal 1352+1
# Otherwise insert the chain directly above the chosen wall atom pointing perpendicular to the wall
create_atoms  1 single 11.9055078897615 0 17 mol bs 24987 units box remap yes rotate 0 0 0 1
Created 30 atoms
variable      check1 equal 1382
# Check that the molecule has indeed been inserted (This check is no longer an issue).
create_bonds  single/bond 2 850 $b
create_bonds  single/bond 2 850 1353
next i
jump MDPBB.in loop    # End of the loop
variable      randni equal round(random(1,1352,$s))
variable      randni equal round(random(1,1352,234897))
variable      randatomi equal 213
variable      randzi equal z[213]
# if the chosen atom is not a surface atom then restart the loop
jump MDPBB.in loop
variable      randni equal round(random(1,1352,$s))
variable      randni equal round(random(1,1352,234897))
variable      randatomi equal 1022
variable      randzi equal z[1022]
# if the chosen atom is not a surface atom then restart the loop
jump MDPBB.in loop
variable      randni equal round(random(1,1352,$s))
variable      randni equal round(random(1,1352,234897))
variable      randatomi equal 1031
variable      randzi equal z[1031]
# if the chosen atom is not a surface atom then restart the loop
jump MDPBB.in loop
variable      randni equal round(random(1,1352,$s))
variable      randni equal round(random(1,1352,234897))
variable      randatomi equal 982
variable      randzi equal z[982]
# if the chosen atom is not a surface atom then restart the loop
jump MDPBB.in loop
variable      randni equal round(random(1,1352,$s))
variable      randni equal round(random(1,1352,234897))
variable      randatomi equal 1332
variable      randzi equal z[1332]
# if the chosen atom is not a surface atom then restart the loop
set           atom 1332 type 4
  1 settings made for type
group         twg id 1332
2 atoms in group twg
variable      twgcount equal count(twg)
twg contains 2
print         "i = $(v_i)"                                # The index i should always be equal to the number of atom in twg
i = 2
variable      x0 equal x[1332]
variable      y0 equal y[1332]
variable      check0 equal 1382
variable      b equal 1382+1
# Otherwise insert the chain directly above the chosen wall atom pointing perpendicular to the wall
create_atoms  1 single 11.1118073637774 19.8425131496025 17 mol bs 24987 units box remap yes rotate 0 0 0 1
Created 30 atoms
variable      check1 equal 1412
# Check that the molecule has indeed been inserted (This check is no longer an issue).
create_bonds  single/bond 2 1332 $b
create_bonds  single/bond 2 1332 1383
next i
jump MDPBB.in loop    # End of the loop
variable      randni equal round(random(1,1352,$s))
variable      randni equal round(random(1,1352,234897))
variable      randatomi equal 643
variable      randzi equal z[643]
# if the chosen atom is not a surface atom then restart the loop
set           atom 643 type 4
  1 settings made for type
group         twg id 643
3 atoms in group twg
variable      twgcount equal count(twg)
twg contains 3
print         "i = $(v_i)"                                # The index i should always be equal to the number of atom in twg
i = 3
variable      x0 equal x[643]
variable      y0 equal y[643]
variable      check0 equal 1412
variable      b equal 1412+1
# Otherwise insert the chain directly above the chosen wall atom pointing perpendicular to the wall
create_atoms  1 single 7.1433047338569 17.4614115716502 17 mol bs 24987 units box remap yes rotate 0 0 0 1
Created 30 atoms
variable      check1 equal 1442
# Check that the molecule has indeed been inserted (This check is no longer an issue).
create_bonds  single/bond 2 643 $b
create_bonds  single/bond 2 643 1413
next i
jump MDPBB.in loop    # End of the loop
variable      randni equal round(random(1,1352,$s))
variable      randni equal round(random(1,1352,234897))
variable      randatomi equal 454
variable      randzi equal z[454]
# if the chosen atom is not a surface atom then restart the loop
jump MDPBB.in loop
variable      randni equal round(random(1,1352,$s))
variable      randni equal round(random(1,1352,234897))
variable      randatomi equal 585
variable      randzi equal z[585]
# if the chosen atom is not a surface atom then restart the loop
jump MDPBB.in loop
variable      randni equal round(random(1,1352,$s))
variable      randni equal round(random(1,1352,234897))
variable      randatomi equal 979
variable      randzi equal z[979]
# if the chosen atom is not a surface atom then restart the loop
jump MDPBB.in loop
variable      randni equal round(random(1,1352,$s))
variable      randni equal round(random(1,1352,234897))
variable      randatomi equal 1211
variable      randzi equal z[1211]
# if the chosen atom is not a surface atom then restart the loop
jump MDPBB.in loop
variable      randni equal round(random(1,1352,$s))
variable      randni equal round(random(1,1352,234897))
variable      randatomi equal 11
variable      randzi equal z[11]
# if the chosen atom is not a surface atom then restart the loop
jump MDPBB.in loop
variable      randni equal round(random(1,1352,$s))
variable      randni equal round(random(1,1352,234897))
variable      randatomi equal 258
variable      randzi equal z[258]
# if the chosen atom is not a surface atom then restart the loop
set           atom 258 type 4
  1 settings made for type
group         twg id 258
4 atoms in group twg
variable      twgcount equal count(twg)
twg contains 4
print         "i = $(v_i)"                                # The index i should always be equal to the number of atom in twg
i = 4
variable      x0 equal x[258]
variable      y0 equal y[258]
variable      check0 equal 1442
variable      b equal 1442+1
# Otherwise insert the chain directly above the chosen wall atom pointing perpendicular to the wall
create_atoms  1 single 3.9685026299205 4.7622031559046 17 mol bs 24987 units box remap yes rotate 0 0 0 1
Created 30 atoms
variable      check1 equal 1472
# Check that the molecule has indeed been inserted (This check is no longer an issue).
create_bonds  single/bond 2 258 $b
create_bonds  single/bond 2 258 1443
next i
jump MDPBB.in loop    # End of the loop
variable      randni equal round(random(1,1352,$s))
variable      randni equal round(random(1,1352,234897))
variable      randatomi equal 442
variable      randzi equal z[442]
# if the chosen atom is not a surface atom then restart the loop
jump MDPBB.in loop
variable      randni equal round(random(1,1352,$s))
variable      randni equal round(random(1,1352,234897))
variable      randatomi equal 1095
variable      randzi equal z[1095]
# if the chosen atom is not a surface atom then restart the loop
jump MDPBB.in loop
variable      randni equal round(random(1,1352,$s))
variable      randni equal round(random(1,1352,234897))
variable      randatomi equal 960
variable      randzi equal z[960]
# if the chosen atom is not a surface atom then restart the loop
jump MDPBB.in loop
variable      randni equal round(random(1,1352,$s))
variable      randni equal round(random(1,1352,234897))
variable      randatomi equal 931
variable      randzi equal z[931]
# if the chosen atom is not a surface atom then restart the loop
jump MDPBB.in loop
variable      randni equal round(random(1,1352,$s))
variable      randni equal round(random(1,1352,234897))
variable      randatomi equal 755
variable      randzi equal z[755]
# if the chosen atom is not a surface atom then restart the loop
jump MDPBB.in loop
variable      randni equal round(random(1,1352,$s))
variable      randni equal round(random(1,1352,234897))
variable      randatomi equal 1053
variable      randzi equal z[1053]
# if the chosen atom is not a surface atom then restart the loop
jump MDPBB.in loop
variable      randni equal round(random(1,1352,$s))
variable      randni equal round(random(1,1352,234897))
variable      randatomi equal 832
variable      randzi equal z[832]
# if the chosen atom is not a surface atom then restart the loop
jump MDPBB.in loop
variable      randni equal round(random(1,1352,$s))
variable      randni equal round(random(1,1352,234897))
variable      randatomi equal 838
variable      randzi equal z[838]
# if the chosen atom is not a surface atom then restart the loop
jump MDPBB.in loop
variable      randni equal round(random(1,1352,$s))
variable      randni equal round(random(1,1352,234897))
variable      randatomi equal 163
variable      randzi equal z[163]
# if the chosen atom is not a surface atom then restart the loop
jump MDPBB.in loop
variable      randni equal round(random(1,1352,$s))
variable      randni equal round(random(1,1352,234897))
variable      randatomi equal 1178
variable      randzi equal z[1178]
# if the chosen atom is not a surface atom then restart the loop
jump MDPBB.in loop
variable      randni equal round(random(1,1352,$s))
variable      randni equal round(random(1,1352,234897))
variable      randatomi equal 814
variable      randzi equal z[814]
# if the chosen atom is not a surface atom then restart the loop
jump MDPBB.in loop
variable      randni equal round(random(1,1352,$s))
variable      randni equal round(random(1,1352,234897))
variable      randatomi equal 1242
variable      randzi equal z[1242]
# if the chosen atom is not a surface atom then restart the loop
jump MDPBB.in loop
variable      randni equal round(random(1,1352,$s))
variable      randni equal round(random(1,1352,234897))
variable      randatomi equal 942
variable      randzi equal z[942]
# if the chosen atom is not a surface atom then restart the loop
jump MDPBB.in loop
variable      randni equal round(random(1,1352,$s))
variable      randni equal round(random(1,1352,234897))
variable      randatomi equal 1214
variable      randzi equal z[1214]
# if the chosen atom is not a surface atom then restart the loop
set           atom 1214 type 4
  1 settings made for type
group         twg id 1214
5 atoms in group twg
variable      twgcount equal count(twg)
twg contains 5
print         "i = $(v_i)"                                # The index i should always be equal to the number of atom in twg
i = 5
variable      x0 equal x[1214]
variable      y0 equal y[1214]
variable      check0 equal 1472
variable      b equal 1472+1
# Otherwise insert the chain directly above the chosen wall atom pointing perpendicular to the wall
create_atoms  1 single 15.874010519682 11.9055078897615 17 mol bs 24987 units box remap yes rotate 0 0 0 1
Created 30 atoms
variable      check1 equal 1502
# Check that the molecule has indeed been inserted (This check is no longer an issue).
create_bonds  single/bond 2 1214 $b
create_bonds  single/bond 2 1214 1473
next i
jump MDPBB.in loop    # End of the loop
variable      randni equal round(random(1,1352,$s))
variable      randni equal round(random(1,1352,234897))
variable      randatomi equal 796
variable      randzi equal z[796]
# if the chosen atom is not a surface atom then restart the loop
jump MDPBB.in loop
variable      randni equal round(random(1,1352,$s))
variable      randni equal round(random(1,1352,234897))
variable      randatomi equal 1150
variable      randzi equal z[1150]
# if the chosen atom is not a surface atom then restart the loop
jump MDPBB.in loop
variable      randni equal round(random(1,1352,$s))
variable      randni equal round(random(1,1352,234897))
variable      randatomi equal 1133
variable      randzi equal z[1133]
# if the chosen atom is not a surface atom then restart the loop
jump MDPBB.in loop
variable      randni equal round(random(1,1352,$s))
variable      randni equal round(random(1,1352,234897))
variable      randatomi equal 563
variable      randzi equal z[563]
# if the chosen atom is not a surface atom then restart the loop
jump MDPBB.in loop
variable      randni equal round(random(1,1352,$s))
variable      randni equal round(random(1,1352,234897))
variable      randatomi equal 1350
variable      randzi equal z[1350]
# if the chosen atom is not a surface atom then restart the loop
jump MDPBB.in loop
variable      randni equal round(random(1,1352,$s))
variable      randni equal round(random(1,1352,234897))
variable      randatomi equal 1318
variable      randzi equal z[1318]
# if the chosen atom is not a surface atom then restart the loop
set           atom 1318 type 4
  1 settings made for type
group         twg id 1318
6 atoms in group twg
variable      twgcount equal count(twg)
twg contains 6
print         "i = $(v_i)"                                # The index i should always be equal to the number of atom in twg
i = 6
variable      x0 equal x[1318]
variable      y0 equal y[1318]
variable      check0 equal 1502
variable      b equal 1502+1
# Otherwise insert the chain directly above the chosen wall atom pointing perpendicular to the wall
create_atoms  1 single 15.874010519682 18.2551120976343 17 mol bs 24987 units box remap yes rotate 0 0 0 1
Created 30 atoms
variable      check1 equal 1532
# Check that the molecule has indeed been inserted (This check is no longer an issue).
create_bonds  single/bond 2 1318 $b
create_bonds  single/bond 2 1318 1503
next i
jump MDPBB.in loop    # End of the loop
variable      randni equal round(random(1,1352,$s))
variable      randni equal round(random(1,1352,234897))
variable      randatomi equal 979
variable      randzi equal z[979]
# if the chosen atom is not a surface atom then restart the loop
jump MDPBB.in loop
variable      randni equal round(random(1,1352,$s))
variable      randni equal round(random(1,1352,234897))
variable      randatomi equal 1270
variable      randzi equal z[1270]
# if the chosen atom is not a surface atom then restart the loop
set           atom 1270 type 4
  1 settings made for type
group         twg id 1270
7 atoms in group twg
variable      twgcount equal count(twg)
twg contains 7
print         "i = $(v_i)"                                # The index i should always be equal to the number of atom in twg
i = 7
variable      x0 equal x[1270]
variable      y0 equal y[1270]
variable      check0 equal 1532
variable      b equal 1532+1
# Otherwise insert the chain directly above the chosen wall atom pointing perpendicular to the wall
create_atoms  1 single 17.4614115716502 15.0803099936979 17 mol bs 24987 units box remap yes rotate 0 0 0 1
Created 30 atoms
variable      check1 equal 1562
# Check that the molecule has indeed been inserted (This check is no longer an issue).
create_bonds  single/bond 2 1270 $b
create_bonds  single/bond 2 1270 1533
next i
jump MDPBB.in loop    # End of the loop
variable      randni equal round(random(1,1352,$s))
variable      randni equal round(random(1,1352,234897))
variable      randatomi equal 320
variable      randzi equal z[320]
# if the chosen atom is not a surface atom then restart the loop
jump MDPBB.in loop
variable      randni equal round(random(1,1352,$s))
variable      randni equal round(random(1,1352,234897))
variable      randatomi equal 1261
variable      randzi equal z[1261]
# if the chosen atom is not a surface atom then restart the loop
set           atom 1261 type 4
  1 settings made for type
group         twg id 1261
8 atoms in group twg
variable      twgcount equal count(twg)
twg contains 8
print         "i = $(v_i)"                                # The index i should always be equal to the number of atom in twg
i = 8
variable      x0 equal x[1261]
variable      y0 equal y[1261]
variable      check0 equal 1562
variable      b equal 1562+1
# Otherwise insert the chain directly above the chosen wall atom pointing perpendicular to the wall
create_atoms  1 single 15.0803099936979 14.2866094677138 17 mol bs 24987 units box remap yes rotate 0 0 0 1
Created 30 atoms
variable      check1 equal 1592
# Check that the molecule has indeed been inserted (This check is no longer an issue).
create_bonds  single/bond 2 1261 $b
create_bonds  single/bond 2 1261 1563
next i
jump MDPBB.in loop    # End of the loop
variable      randni equal round(random(1,1352,$s))
variable      randni equal round(random(1,1352,234897))
variable      randatomi equal 177
variable      randzi equal z[177]
# if the chosen atom is not a surface atom then restart the loop
set           atom 177 type 4
  1 settings made for type
group         twg id 177
9 atoms in group twg
variable      twgcount equal count(twg)
twg contains 9
print         "i = $(v_i)"                                # The index i should always be equal to the number of atom in twg
i = 9
variable      x0 equal x[177]
variable      y0 equal y[177]
variable      check0 equal 1592
variable      b equal 1592+1
# Otherwise insert the chain directly above the chosen wall atom pointing perpendicular to the wall
create_atoms  1 single 1.5874010519682 0.7937005259841 17 mol bs 24987 units box remap yes rotate 0 0 0 1
Created 30 atoms
variable      check1 equal 1622
# Check that the molecule has indeed been inserted (This check is no longer an issue).
create_bonds  single/bond 2 177 $b
create_bonds  single/bond 2 177 1593
next i
jump MDPBB.in loop    # End of the loop
variable      randni equal round(random(1,1352,$s))
variable      randni equal round(random(1,1352,234897))
variable      randatomi equal 1150
variable      randzi equal z[1150]
# if the chosen atom is not a surface atom then restart the loop
jump MDPBB.in loop
variable      randni equal round(random(1,1352,$s))
variable      randni equal round(random(1,1352,234897))
variable      randatomi equal 1263
variable      randzi equal z[1263]
# if the chosen atom is not a surface atom then restart the loop
jump MDPBB.in loop
variable      randni equal round(random(1,1352,$s))
variable      randni equal round(random(1,1352,234897))
variable      randatomi equal 463
variable      randzi equal z[463]
# if the chosen atom is not a surface atom then restart the loop
jump MDPBB.in loop
variable      randni equal round(random(1,1352,$s))
variable      randni equal round(random(1,1352,234897))
variable      randatomi equal 352
variable      randzi equal z[352]
# if the chosen atom is not a surface atom then restart the loop
jump MDPBB.in loop
variable      randni equal round(random(1,1352,$s))
variable      randni equal round(random(1,1352,234897))
variable      randatomi equal 898
variable      randzi equal z[898]
# if the chosen atom is not a surface atom then restart the loop
jump MDPBB.in loop
variable      randni equal round(random(1,1352,$s))
variable      randni equal round(random(1,1352,234897))
variable      randatomi equal 631
variable      randzi equal z[631]
# if the chosen atom is not a surface atom then restart the loop
set           atom 631 type 4
  1 settings made for type
group         twg id 631
10 atoms in group twg
variable      twgcount equal count(twg)
twg contains 10
print         "i = $(v_i)"                                # The index i should always be equal to the number of atom in twg
i = 10
variable      x0 equal x[631]
variable      y0 equal y[631]
variable      check0 equal 1622
variable      b equal 1622+1
# Otherwise insert the chain directly above the chosen wall atom pointing perpendicular to the wall
create_atoms  1 single 2.3811015779523 17.4614115716502 17 mol bs 24987 units box remap yes rotate 0 0 0 1
Created 30 atoms
variable      check1 equal 1652
# Check that the molecule has indeed been inserted (This check is no longer an issue).
create_bonds  single/bond 2 631 $b
create_bonds  single/bond 2 631 1623
next i
jump MDPBB.in loop    # End of the loop
variable      randni equal round(random(1,1352,$s))
variable      randni equal round(random(1,1352,234897))
variable      randatomi equal 196
variable      randzi equal z[196]
# if the chosen atom is not a surface atom then restart the loop
jump MDPBB.in loop
variable      randni equal round(random(1,1352,$s))
variable      randni equal round(random(1,1352,234897))
variable      randatomi equal 1245
variable      randzi equal z[1245]
# if the chosen atom is not a surface atom then restart the loop
jump MDPBB.in loop
variable      randni equal round(random(1,1352,$s))
variable      randni equal round(random(1,1352,234897))
variable      randatomi equal 1293
variable      randzi equal z[1293]
# if the chosen atom is not a surface atom then restart the loop
jump MDPBB.in loop
variable      randni equal round(random(1,1352,$s))
variable      randni equal round(random(1,1352,234897))
variable      randatomi equal 1223
variable      randzi equal z[1223]
# if the chosen atom is not a surface atom then restart the loop
jump MDPBB.in loop
variable      randni equal round(random(1,1352,$s))
variable      randni equal round(random(1,1352,234897))
variable      randatomi equal 1078
variable      randzi equal z[1078]
# if the chosen atom is not a surface atom then restart the loop
jump MDPBB.in loop
variable      randni equal round(random(1,1352,$s))
variable      randni equal round(random(1,1352,234897))
variable      randatomi equal 594
variable      randzi equal z[594]
# if the chosen atom is not a surface atom then restart the loop
jump MDPBB.in loop
variable      randni equal round(random(1,1352,$s))
variable      randni equal round(random(1,1352,234897))
variable      randatomi equal 502
variable      randzi equal z[502]
# if the chosen atom is not a surface atom then restart the loop
jump MDPBB.in loop
variable      randni equal round(random(1,1352,$s))
variable      randni equal round(random(1,1352,234897))
variable      randatomi equal 948
variable      randzi equal z[948]
# if the chosen atom is not a surface atom then restart the loop
set           atom 948 type 4
  1 settings made for type
group         twg id 948
11 atoms in group twg
variable      twgcount equal count(twg)
twg contains 11
print         "i = $(v_i)"                                # The index i should always be equal to the number of atom in twg
i = 11
variable      x0 equal x[948]
variable      y0 equal y[948]
variable      check0 equal 1652
variable      b equal 1652+1
# Otherwise insert the chain directly above the chosen wall atom pointing perpendicular to the wall
create_atoms  1 single 19.8425131496025 4.7622031559046 17 mol bs 24987 units box remap yes rotate 0 0 0 1
Created 30 atoms
variable      check1 equal 1682
# Check that the molecule has indeed been inserted (This check is no longer an issue).
create_bonds  single/bond 2 948 $b
create_bonds  single/bond 2 948 1653
next i
jump MDPBB.in loop    # End of the loop
variable      randni equal round(random(1,1352,$s))
variable      randni equal round(random(1,1352,234897))
variable      randatomi equal 127
variable      randzi equal z[127]
# if the chosen atom is not a surface atom then restart the loop
jump MDPBB.in loop
variable      randni equal round(random(1,1352,$s))
variable      randni equal round(random(1,1352,234897))
variable      randatomi equal 512
variable      randzi equal z[512]
# if the chosen atom is not a surface atom then restart the loop
jump MDPBB.in loop
variable      randni equal round(random(1,1352,$s))
variable      randni equal round(random(1,1352,234897))
variable      randatomi equal 590
variable      randzi equal z[590]
# if the chosen atom is not a surface atom then restart the loop
jump MDPBB.in loop
variable      randni equal round(random(1,1352,$s))
variable      randni equal round(random(1,1352,234897))
variable      randatomi equal 445
variable      randzi equal z[445]
# if the chosen atom is not a surface atom then restart the loop
jump MDPBB.in loop
variable      randni equal round(random(1,1352,$s))
variable      randni equal round(random(1,1352,234897))
variable      randatomi equal 825
variable      randzi equal z[825]
# if the chosen atom is not a surface atom then restart the loop
jump MDPBB.in loop
variable      randni equal round(random(1,1352,$s))
variable      randni equal round(random(1,1352,234897))
variable      randatomi equal 387
variable      randzi equal z[387]
# if the chosen atom is not a surface atom then restart the loop
jump MDPBB.in loop
variable      randni equal round(random(1,1352,$s))
variable      randni equal round(random(1,1352,234897))
variable      randatomi equal 323
variable      randzi equal z[323]
# if the chosen atom is not a surface atom then restart the loop
set           atom 323 type 4
  1 settings made for type
group         twg id 323
12 atoms in group twg
variable      twgcount equal count(twg)
twg contains 12
print         "i = $(v_i)"                                # The index i should always be equal to the number of atom in twg
i = 12
variable      x0 equal x[323]
variable      y0 equal y[323]
variable      check0 equal 1682
variable      b equal 1682+1
# Otherwise insert the chain directly above the chosen wall atom pointing perpendicular to the wall
create_atoms  1 single 7.937005259841 8.7307057858251 17 mol bs 24987 units box remap yes rotate 0 0 0 1
Created 30 atoms
variable      check1 equal 1712
# Check that the molecule has indeed been inserted (This check is no longer an issue).
create_bonds  single/bond 2 323 $b
create_bonds  single/bond 2 323 1683
next i
jump MDPBB.in loop    # End of the loop
variable      randni equal round(random(1,1352,$s))
variable      randni equal round(random(1,1352,234897))
variable      randatomi equal 117
variable      randzi equal z[117]
# if the chosen atom is not a surface atom then restart the loop
jump MDPBB.in loop
variable      randni equal round(random(1,1352,$s))
variable      randni equal round(random(1,1352,234897))
variable      randatomi equal 921
variable      randzi equal z[921]
# if the chosen atom is not a surface atom then restart the loop
jump MDPBB.in loop
variable      randni equal round(random(1,1352,$s))
variable      randni equal round(random(1,1352,234897))
variable      randatomi equal 992
variable      randzi equal z[992]
# if the chosen atom is not a surface atom then restart the loop
set           atom 992 type 4
  1 settings made for type
group         twg id 992
13 atoms in group twg
variable      twgcount equal count(twg)
twg contains 13
print         "i = $(v_i)"                                # The index i should always be equal to the number of atom in twg
i = 13
variable      x0 equal x[992]
variable      y0 equal y[992]
variable      check0 equal 1712
variable      b equal 1712+1
# Otherwise insert the chain directly above the chosen wall atom pointing perpendicular to the wall
create_atoms  1 single 16.6677110456661 7.937005259841 17 mol bs 24987 units box remap yes rotate 0 0 0 1
Created 30 atoms
variable      check1 equal 1742
# Check that the molecule has indeed been inserted (This check is no longer an issue).
create_bonds  single/bond 2 992 $b
create_bonds  single/bond 2 992 1713
next i
jump MDPBB.in loop    # End of the loop
variable      randni equal round(random(1,1352,$s))
variable      randni equal round(random(1,1352,234897))
variable      randatomi equal 456
variable      randzi equal z[456]
# if the chosen atom is not a surface atom then restart the loop
jump MDPBB.in loop
variable      randni equal round(random(1,1352,$s))
variable      randni equal round(random(1,1352,234897))
variable      randatomi equal 676
variable      randzi equal z[676]
# if the chosen atom is not a surface atom then restart the loop
set           atom 676 type 4
  1 settings made for type
group         twg id 676
14 atoms in group twg
variable      twgcount equal count(twg)
twg contains 14
print         "i = $(v_i)"                                # The index i should always be equal to the number of atom in twg
i = 14
variable      x0 equal x[676]
variable      y0 equal y[676]
variable      check0 equal 1742
variable      b equal 1742+1
# Otherwise insert the chain directly above the chosen wall atom pointing perpendicular to the wall
create_atoms  1 single 9.5244063118092 19.8425131496025 17 mol bs 24987 units box remap yes rotate 0 0 0 1
Created 30 atoms
variable      check1 equal 1772
# Check that the molecule has indeed been inserted (This check is no longer an issue).
create_bonds  single/bond 2 676 $b
create_bonds  single/bond 2 676 1743
next i
jump MDPBB.in loop    # End of the loop
variable      randni equal round(random(1,1352,$s))
variable      randni equal round(random(1,1352,234897))
variable      randatomi equal 582
variable      randzi equal z[582]
# if the chosen atom is not a surface atom then restart the loop
jump MDPBB.in loop
variable      randni equal round(random(1,1352,$s))
variable      randni equal round(random(1,1352,234897))
variable      randatomi equal 307
variable      randzi equal z[307]
# if the chosen atom is not a surface atom then restart the loop
set           atom 307 type 4
  1 settings made for type
group         twg id 307
15 atoms in group twg
variable      twgcount equal count(twg)
twg contains 15
print         "i = $(v_i)"                                # The index i should always be equal to the number of atom in twg
i = 15
variable      x0 equal x[307]
variable      y0 equal y[307]
variable      check0 equal 1772
variable      b equal 1772+1
# Otherwise insert the chain directly above the chosen wall atom pointing perpendicular to the wall
create_atoms  1 single 1.5874010519682 8.7307057858251 17 mol bs 24987 units box remap yes rotate 0 0 0 1
Created 30 atoms
variable      check1 equal 1802
# Check that the molecule has indeed been inserted (This check is no longer an issue).
create_bonds  single/bond 2 307 $b
create_bonds  single/bond 2 307 1773
next i
jump MDPBB.in loop    # End of the loop
variable      randni equal round(random(1,1352,$s))
variable      randni equal round(random(1,1352,234897))
variable      randatomi equal 784
variable      randzi equal z[784]
# if the chosen atom is not a surface atom then restart the loop
jump MDPBB.in loop
variable      randni equal round(random(1,1352,$s))
variable      randni equal round(random(1,1352,234897))
variable      randatomi equal 247
variable      randzi equal z[247]
# if the chosen atom is not a surface atom then restart the loop
set           atom 247 type 4
  1 settings made for type
group         twg id 247
16 atoms in group twg
variable      twgcount equal count(twg)
twg contains 16
print         "i = $(v_i)"                                # The index i should always be equal to the number of atom in twg
i = 16
variable      x0 equal x[247]
variable      y0 equal y[247]
variable      check0 equal 1802
variable      b equal 1802+1
# Otherwise insert the chain directly above the chosen wall atom pointing perpendicular to the wall
create_atoms  1 single 9.5244063118092 3.9685026299205 17 mol bs 24987 units box remap yes rotate 0 0 0 1
Created 30 atoms
variable      check1 equal 1832
# Check that the molecule has indeed been inserted (This check is no longer an issue).
create_bonds  single/bond 2 247 $b
create_bonds  single/bond 2 247 1803
next i
jump MDPBB.in loop    # End of the loop
variable      randni equal round(random(1,1352,$s))
variable      randni equal round(random(1,1352,234897))
variable      randatomi equal 1193
variable      randzi equal z[1193]
# if the chosen atom is not a surface atom then restart the loop
jump MDPBB.in loop
variable      randni equal round(random(1,1352,$s))
variable      randni equal round(random(1,1352,234897))
variable      randatomi equal 624
variable      randzi equal z[624]
# if the chosen atom is not a surface atom then restart the loop
set           atom 624 type 4
  1 settings made for type
group         twg id 624
17 atoms in group twg
variable      twgcount equal count(twg)
twg contains 17
print         "i = $(v_i)"                                # The index i should always be equal to the number of atom in twg
i = 17
variable      x0 equal x[624]
variable      y0 equal y[624]
variable      check0 equal 1832
variable      b equal 1832+1
# Otherwise insert the chain directly above the chosen wall atom pointing perpendicular to the wall
create_atoms  1 single 9.5244063118092 16.6677110456661 17 mol bs 24987 units box remap yes rotate 0 0 0 1
Created 30 atoms
variable      check1 equal 1862
# Check that the molecule has indeed been inserted (This check is no longer an issue).
create_bonds  single/bond 2 624 $b
create_bonds  single/bond 2 624 1833
next i
jump MDPBB.in loop    # End of the loop
variable      randni equal round(random(1,1352,$s))
variable      randni equal round(random(1,1352,234897))
variable      randatomi equal 1326
variable      randzi equal z[1326]
# if the chosen atom is not a surface atom then restart the loop
set           atom 1326 type 4
  1 settings made for type
group         twg id 1326
18 atoms in group twg
variable      twgcount equal count(twg)
twg contains 18
print         "i = $(v_i)"                                # The index i should always be equal to the number of atom in twg
i = 18
variable      x0 equal x[1326]
variable      y0 equal y[1326]
variable      check0 equal 1862
variable      b equal 1862+1
# Otherwise insert the chain directly above the chosen wall atom pointing perpendicular to the wall
create_atoms  1 single 19.0488126236184 18.2551120976343 17 mol bs 24987 units box remap yes rotate 0 0 0 1
Created 30 atoms
variable      check1 equal 1892
# Check that the molecule has indeed been inserted (This check is no longer an issue).
create_bonds  single/bond 2 1326 $b
create_bonds  single/bond 2 1326 1863
next i
jump MDPBB.in loop    # End of the loop
variable      randni equal round(random(1,1352,$s))
variable      randni equal round(random(1,1352,234897))
variable      randatomi equal 1038
variable      randzi equal z[1038]
# if the chosen atom is not a surface atom then restart the loop
jump MDPBB.in loop
variable      randni equal round(random(1,1352,$s))
variable      randni equal round(random(1,1352,234897))
variable      randatomi equal 1243
variable      randzi equal z[1243]
# if the chosen atom is not a surface atom then restart the loop
set           atom 1243 type 4
  1 settings made for type
group         twg id 1243
19 atoms in group twg
variable      twgcount equal count(twg)
twg contains 19
print         "i = $(v_i)"                                # The index i should always be equal to the number of atom in twg
i = 19
variable      x0 equal x[1243]
variable      y0 equal y[1243]
variable      check0 equal 1892
variable      b equal 1892+1
# Otherwise insert the chain directly above the chosen wall atom pointing perpendicular to the wall
create_atoms  1 single 18.2551120976343 12.6992084157456 17 mol bs 24987 units box remap yes rotate 0 0 0 1
Created 30 atoms
variable      check1 equal 1922
# Check that the molecule has indeed been inserted (This check is no longer an issue).
create_bonds  single/bond 2 1243 $b
create_bonds  single/bond 2 1243 1893
next i
jump MDPBB.in loop    # End of the loop
variable      randni equal round(random(1,1352,$s))
variable      randni equal round(random(1,1352,234897))
variable      randatomi equal 1344
variable      randzi equal z[1344]
# if the chosen atom is not a surface atom then restart the loop
set           atom 1344 type 4
  1 settings made for type
group         twg id 1344
20 atoms in group twg
variable      twgcount equal count(twg)
twg contains 20
print         "i = $(v_i)"                                # The index i should always be equal to the number of atom in twg
i = 20
variable      x0 equal x[1344]
variable      y0 equal y[1344]
variable      check0 equal 1922
variable      b equal 1922+1
# Otherwise insert the chain directly above the chosen wall atom pointing perpendicular to the wall
create_atoms  1 single 15.874010519682 19.8425131496025 17 mol bs 24987 units box remap yes rotate 0 0 0 1
Created 30 atoms
variable      check1 equal 1952
# Check that the molecule has indeed been inserted (This check is no longer an issue).
create_bonds  single/bond 2 1344 $b
create_bonds  single/bond 2 1344 1923
next i
jump MDPBB.in loop    # End of the loop

# Rotate the created brush about the centre of the simulation box by 180 degrees to make it true top brush
displace_atoms all rotate $(v_xhi/2.0) $(v_yhi/2.0) $(v_zhi/2.0 - 1) 1 0 0 180 units box
displace_atoms all rotate 10 $(v_yhi/2.0) $(v_zhi/2.0 - 1) 1 0 0 180 units box
displace_atoms all rotate 10 10 $(v_zhi/2.0 - 1) 1 0 0 180 units box
displace_atoms all rotate 10 10 35 1 0 0 180 units box

variable      ntop0 equal 1952

#--- Create the Bottom brush ---#

# Repeating the same procedure as above again but with new atoms

create_atoms  1 region wall
Created 1352 atoms
group         bwall region wall
1352 atoms in group bwall
variable      nbwall0 equal 1352

variable      j loop $M
variable      j loop 20
label         loopj
variable      randnj equal round(random(v_ntop0,$(v_ntop0 + v_nbwall0),$s))
variable      randnj equal round(random(v_ntop0,3304,$s))
variable      randnj equal round(random(v_ntop0,3304,234897))
variable      randatomj equal 2592
variable      randzj equal z[2592]
set           atom 2592 type 4
  1 settings made for type
group         bwg id 2592
1 atoms in group bwg
variable      bwgcount equal count(bwg)
bwg contains 1
print         "j = $(v_j)"
j = 1
variable      x0 equal x[2592]
variable      y0 equal y[2592]
variable      check0 equal 3304
variable      b equal 3304+1
create_atoms  1 single 4.7622031559046 18.2551120976343 17 mol bs 24987 units box remap yes rotate 0 0 0 1
Created 30 atoms
variable      check1 equal 3334
create_bonds  single/bond 2 2592 $b
create_bonds  single/bond 2 2592 3305
next j
jump MDPBB.in loopj
variable      randnj equal round(random(v_ntop0,$(v_ntop0 + v_nbwall0),$s))
variable      randnj equal round(random(v_ntop0,3304,$s))
variable      randnj equal round(random(v_ntop0,3304,234897))
variable      randatomj equal 2401
variable      randzj equal z[2401]
jump MDPBB.in loopj
variable      randnj equal round(random(v_ntop0,$(v_ntop0 + v_nbwall0),$s))
variable      randnj equal round(random(v_ntop0,3304,$s))
variable      randnj equal round(random(v_ntop0,3304,234897))
variable      randatomj equal 2047
variable      randzj equal z[2047]
jump MDPBB.in loopj
variable      randnj equal round(random(v_ntop0,$(v_ntop0 + v_nbwall0),$s))
variable      randnj equal round(random(v_ntop0,3304,$s))
variable      randnj equal round(random(v_ntop0,3304,234897))
variable      randatomj equal 2301
variable      randzj equal z[2301]
jump MDPBB.in loopj
variable      randnj equal round(random(v_ntop0,$(v_ntop0 + v_nbwall0),$s))
variable      randnj equal round(random(v_ntop0,3304,$s))
variable      randnj equal round(random(v_ntop0,3304,234897))
variable      randatomj equal 2197
variable      randzj equal z[2197]
set           atom 2197 type 4
  1 settings made for type
group         bwg id 2197
2 atoms in group bwg
variable      bwgcount equal count(bwg)
bwg contains 2
print         "j = $(v_j)"
j = 2
variable      x0 equal x[2197]
variable      y0 equal y[2197]
variable      check0 equal 3334
variable      b equal 3334+1
create_atoms  1 single 7.937005259841 3.9685026299205 17 mol bs 24987 units box remap yes rotate 0 0 0 1
Created 30 atoms
variable      check1 equal 3364
create_bonds  single/bond 2 2197 $b
create_bonds  single/bond 2 2197 3335
next j
jump MDPBB.in loopj
variable      randnj equal round(random(v_ntop0,$(v_ntop0 + v_nbwall0),$s))
variable      randnj equal round(random(v_ntop0,3304,$s))
variable      randnj equal round(random(v_ntop0,3304,234897))
variable      randatomj equal 2506
variable      randzj equal z[2506]
set           atom 2506 type 4
  1 settings made for type
group         bwg id 2506
3 atoms in group bwg
variable      bwgcount equal count(bwg)
bwg contains 3
print         "j = $(v_j)"
j = 3
variable      x0 equal x[2506]
variable      y0 equal y[2506]
variable      check0 equal 3364
variable      b equal 3364+1
create_atoms  1 single 1.5874010519682 13.4929089417297 17 mol bs 24987 units box remap yes rotate 0 0 0 1
Created 30 atoms
variable      check1 equal 3394
create_bonds  single/bond 2 2506 $b
create_bonds  single/bond 2 2506 3365
next j
jump MDPBB.in loopj
variable      randnj equal round(random(v_ntop0,$(v_ntop0 + v_nbwall0),$s))
variable      randnj equal round(random(v_ntop0,3304,$s))
variable      randnj equal round(random(v_ntop0,3304,234897))
variable      randatomj equal 2760
variable      randzj equal z[2760]
jump MDPBB.in loopj
variable      randnj equal round(random(v_ntop0,$(v_ntop0 + v_nbwall0),$s))
variable      randnj equal round(random(v_ntop0,3304,$s))
variable      randnj equal round(random(v_ntop0,3304,234897))
variable      randatomj equal 2595
variable      randzj equal z[2595]
set           atom 2595 type 4
  1 settings made for type
group         bwg id 2595
4 atoms in group bwg
variable      bwgcount equal count(bwg)
bwg contains 4
print         "j = $(v_j)"
j = 4
variable      x0 equal x[2595]
variable      y0 equal y[2595]
variable      check0 equal 3394
variable      b equal 3394+1
create_atoms  1 single 7.1433047338569 17.4614115716502 17 mol bs 24987 units box remap yes rotate 0 0 0 1
Created 30 atoms
variable      check1 equal 3424
create_bonds  single/bond 2 2595 $b
create_bonds  single/bond 2 2595 3395
next j
jump MDPBB.in loopj
variable      randnj equal round(random(v_ntop0,$(v_ntop0 + v_nbwall0),$s))
variable      randnj equal round(random(v_ntop0,3304,$s))
variable      randnj equal round(random(v_ntop0,3304,234897))
variable      randatomj equal 3075
variable      randzj equal z[3075]
jump MDPBB.in loopj
variable      randnj equal round(random(v_ntop0,$(v_ntop0 + v_nbwall0),$s))
variable      randnj equal round(random(v_ntop0,3304,$s))
variable      randnj equal round(random(v_ntop0,3304,234897))
variable      randatomj equal 2153
variable      randzj equal z[2153]
jump MDPBB.in loopj
variable      randnj equal round(random(v_ntop0,$(v_ntop0 + v_nbwall0),$s))
variable      randnj equal round(random(v_ntop0,3304,$s))
variable      randnj equal round(random(v_ntop0,3304,234897))
variable      randatomj equal 2176
variable      randzj equal z[2176]
set           atom 2176 type 4
  1 settings made for type
group         bwg id 2176
5 atoms in group bwg
variable      bwgcount equal count(bwg)
bwg contains 5
print         "j = $(v_j)"
j = 5
variable      x0 equal x[2176]
variable      y0 equal y[2176]
variable      check0 equal 3424
variable      b equal 3424+1
create_atoms  1 single 0.7937005259841 3.1748021039364 17 mol bs 24987 units box remap yes rotate 0 0 0 1
Created 30 atoms
variable      check1 equal 3454
create_bonds  single/bond 2 2176 $b
create_bonds  single/bond 2 2176 3425
next j
jump MDPBB.in loopj
variable      randnj equal round(random(v_ntop0,$(v_ntop0 + v_nbwall0),$s))
variable      randnj equal round(random(v_ntop0,3304,$s))
variable      randnj equal round(random(v_ntop0,3304,234897))
variable      randatomj equal 3036
variable      randzj equal z[3036]
jump MDPBB.in loopj
variable      randnj equal round(random(v_ntop0,$(v_ntop0 + v_nbwall0),$s))
variable      randnj equal round(random(v_ntop0,3304,$s))
variable      randnj equal round(random(v_ntop0,3304,234897))
variable      randatomj equal 2809
variable      randzj equal z[2809]
jump MDPBB.in loopj
variable      randnj equal round(random(v_ntop0,$(v_ntop0 + v_nbwall0),$s))
variable      randnj equal round(random(v_ntop0,3304,$s))
variable      randnj equal round(random(v_ntop0,3304,234897))
variable      randatomj equal 2257
variable      randzj equal z[2257]
jump MDPBB.in loopj
variable      randnj equal round(random(v_ntop0,$(v_ntop0 + v_nbwall0),$s))
variable      randnj equal round(random(v_ntop0,3304,$s))
variable      randnj equal round(random(v_ntop0,3304,234897))
variable      randatomj equal 2387
variable      randzj equal z[2387]
jump MDPBB.in loopj
variable      randnj equal round(random(v_ntop0,$(v_ntop0 + v_nbwall0),$s))
variable      randnj equal round(random(v_ntop0,3304,$s))
variable      randnj equal round(random(v_ntop0,3304,234897))
variable      randatomj equal 2316
variable      randzj equal z[2316]
jump MDPBB.in loopj
variable      randnj equal round(random(v_ntop0,$(v_ntop0 + v_nbwall0),$s))
variable      randnj equal round(random(v_ntop0,3304,$s))
variable      randnj equal round(random(v_ntop0,3304,234897))
variable      randatomj equal 3016
variable      randzj equal z[3016]
jump MDPBB.in loopj
variable      randnj equal round(random(v_ntop0,$(v_ntop0 + v_nbwall0),$s))
variable      randnj equal round(random(v_ntop0,3304,$s))
variable      randnj equal round(random(v_ntop0,3304,234897))
variable      randatomj equal 3129
variable      randzj equal z[3129]
jump MDPBB.in loopj
variable      randnj equal round(random(v_ntop0,$(v_ntop0 + v_nbwall0),$s))
variable      randnj equal round(random(v_ntop0,3304,$s))
variable      randnj equal round(random(v_ntop0,3304,234897))
variable      randatomj equal 2539
variable      randzj equal z[2539]
set           atom 2539 type 4
  1 settings made for type
group         bwg id 2539
6 atoms in group bwg
variable      bwgcount equal count(bwg)
bwg contains 6
print         "j = $(v_j)"
j = 6
variable      x0 equal x[2539]
variable      y0 equal y[2539]
variable      check0 equal 3454
variable      b equal 3454+1
create_atoms  1 single 5.5559036818887 14.2866094677138 17 mol bs 24987 units box remap yes rotate 0 0 0 1
Created 30 atoms
variable      check1 equal 3484
create_bonds  single/bond 2 2539 $b
create_bonds  single/bond 2 2539 3455
next j
jump MDPBB.in loopj
variable      randnj equal round(random(v_ntop0,$(v_ntop0 + v_nbwall0),$s))
variable      randnj equal round(random(v_ntop0,3304,$s))
variable      randnj equal round(random(v_ntop0,3304,234897))
variable      randatomj equal 3301
variable      randzj equal z[3301]
jump MDPBB.in loopj
variable      randnj equal round(random(v_ntop0,$(v_ntop0 + v_nbwall0),$s))
variable      randnj equal round(random(v_ntop0,3304,$s))
variable      randnj equal round(random(v_ntop0,3304,234897))
variable      randatomj equal 2833
variable      randzj equal z[2833]
set           atom 2833 type 4
  1 settings made for type
group         bwg id 2833
7 atoms in group bwg
variable      bwgcount equal count(bwg)
bwg contains 7
print         "j = $(v_j)"
j = 7
variable      x0 equal x[2833]
variable      y0 equal y[2833]
variable      check0 equal 3484
variable      b equal 3484+1
create_atoms  1 single 12.6992084157456 2.3811015779523 17 mol bs 24987 units box remap yes rotate 0 0 0 1
Created 30 atoms
variable      check1 equal 3514
create_bonds  single/bond 2 2833 $b
create_bonds  single/bond 2 2833 3485
next j
jump MDPBB.in loopj
variable      randnj equal round(random(v_ntop0,$(v_ntop0 + v_nbwall0),$s))
variable      randnj equal round(random(v_ntop0,3304,$s))
variable      randnj equal round(random(v_ntop0,3304,234897))
variable      randatomj equal 3190
variable      randzj equal z[3190]
jump MDPBB.in loopj
variable      randnj equal round(random(v_ntop0,$(v_ntop0 + v_nbwall0),$s))
variable      randnj equal round(random(v_ntop0,3304,$s))
variable      randnj equal round(random(v_ntop0,3304,234897))
variable      randatomj equal 2534
variable      randzj equal z[2534]
jump MDPBB.in loopj
variable      randnj equal round(random(v_ntop0,$(v_ntop0 + v_nbwall0),$s))
variable      randnj equal round(random(v_ntop0,3304,$s))
variable      randnj equal round(random(v_ntop0,3304,234897))
variable      randatomj equal 2685
variable      randzj equal z[2685]
jump MDPBB.in loopj
variable      randnj equal round(random(v_ntop0,$(v_ntop0 + v_nbwall0),$s))
variable      randnj equal round(random(v_ntop0,3304,$s))
variable      randnj equal round(random(v_ntop0,3304,234897))
variable      randatomj equal 2941
variable      randzj equal z[2941]
set           atom 2941 type 4
  1 settings made for type
group         bwg id 2941
8 atoms in group bwg
variable      bwgcount equal count(bwg)
bwg contains 8
print         "j = $(v_j)"
j = 8
variable      x0 equal x[2941]
variable      y0 equal y[2941]
variable      check0 equal 3514
variable      b equal 3514+1
create_atoms  1 single 14.2866094677138 8.7307057858251 17 mol bs 24987 units box remap yes rotate 0 0 0 1
Created 30 atoms
variable      check1 equal 3544
create_bonds  single/bond 2 2941 $b
create_bonds  single/bond 2 2941 3515
next j
jump MDPBB.in loopj
variable      randnj equal round(random(v_ntop0,$(v_ntop0 + v_nbwall0),$s))
variable      randnj equal round(random(v_ntop0,3304,$s))
variable      randnj equal round(random(v_ntop0,3304,234897))
variable      randatomj equal 2537
variable      randzj equal z[2537]
jump MDPBB.in loopj
variable      randnj equal round(random(v_ntop0,$(v_ntop0 + v_nbwall0),$s))
variable      randnj equal round(random(v_ntop0,3304,$s))
variable      randnj equal round(random(v_ntop0,3304,234897))
variable      randatomj equal 2348
variable      randzj equal z[2348]
jump MDPBB.in loopj
variable      randnj equal round(random(v_ntop0,$(v_ntop0 + v_nbwall0),$s))
variable      randnj equal round(random(v_ntop0,3304,$s))
variable      randnj equal round(random(v_ntop0,3304,234897))
variable      randatomj equal 1970
variable      randzj equal z[1970]
jump MDPBB.in loopj
variable      randnj equal round(random(v_ntop0,$(v_ntop0 + v_nbwall0),$s))
variable      randnj equal round(random(v_ntop0,3304,$s))
variable      randnj equal round(random(v_ntop0,3304,234897))
variable      randatomj equal 2155
variable      randzj equal z[2155]
set           atom 2155 type 4
  1 settings made for type
group         bwg id 2155
9 atoms in group bwg
variable      bwgcount equal count(bwg)
bwg contains 9
print         "j = $(v_j)"
j = 9
variable      x0 equal x[2155]
variable      y0 equal y[2155]
variable      check0 equal 3544
variable      b equal 3544+1
create_atoms  1 single 1.5874010519682 2.3811015779523 17 mol bs 24987 units box remap yes rotate 0 0 0 1
Created 30 atoms
variable      check1 equal 3574
create_bonds  single/bond 2 2155 $b
create_bonds  single/bond 2 2155 3545
next j
jump MDPBB.in loopj
variable      randnj equal round(random(v_ntop0,$(v_ntop0 + v_nbwall0),$s))
variable      randnj equal round(random(v_ntop0,3304,$s))
variable      randnj equal round(random(v_ntop0,3304,234897))
variable      randatomj equal 2731
variable      randzj equal z[2731]
jump MDPBB.in loopj
variable      randnj equal round(random(v_ntop0,$(v_ntop0 + v_nbwall0),$s))
variable      randnj equal round(random(v_ntop0,3304,$s))
variable      randnj equal round(random(v_ntop0,3304,234897))
variable      randatomj equal 2095
variable      randzj equal z[2095]
jump MDPBB.in loopj
variable      randnj equal round(random(v_ntop0,$(v_ntop0 + v_nbwall0),$s))
variable      randnj equal round(random(v_ntop0,3304,$s))
variable      randnj equal round(random(v_ntop0,3304,234897))
variable      randatomj equal 2638
variable      randzj equal z[2638]
jump MDPBB.in loopj
variable      randnj equal round(random(v_ntop0,$(v_ntop0 + v_nbwall0),$s))
variable      randnj equal round(random(v_ntop0,3304,$s))
variable      randnj equal round(random(v_ntop0,3304,234897))
variable      randatomj equal 2195
variable      randzj equal z[2195]
jump MDPBB.in loopj
variable      randnj equal round(random(v_ntop0,$(v_ntop0 + v_nbwall0),$s))
variable      randnj equal round(random(v_ntop0,3304,$s))
variable      randnj equal round(random(v_ntop0,3304,234897))
variable      randatomj equal 2396
variable      randzj equal z[2396]
jump MDPBB.in loopj
variable      randnj equal round(random(v_ntop0,$(v_ntop0 + v_nbwall0),$s))
variable      randnj equal round(random(v_ntop0,3304,$s))
variable      randnj equal round(random(v_ntop0,3304,234897))
variable      randatomj equal 2004
variable      randzj equal z[2004]
jump MDPBB.in loopj
variable      randnj equal round(random(v_ntop0,$(v_ntop0 + v_nbwall0),$s))
variable      randnj equal round(random(v_ntop0,3304,$s))
variable      randnj equal round(random(v_ntop0,3304,234897))
variable      randatomj equal 3222
variable      randzj equal z[3222]
set           atom 3222 type 4
  1 settings made for type
group         bwg id 3222
10 atoms in group bwg
variable      bwgcount equal count(bwg)
bwg contains 10
print         "j = $(v_j)"
j = 10
variable      x0 equal x[3222]
variable      y0 equal y[3222]
variable      check0 equal 3574
variable      b equal 3574+1
create_atoms  1 single 17.4614115716502 15.0803099936979 17 mol bs 24987 units box remap yes rotate 0 0 0 1
Created 30 atoms
variable      check1 equal 3604
create_bonds  single/bond 2 3222 $b
create_bonds  single/bond 2 3222 3575
next j
jump MDPBB.in loopj
variable      randnj equal round(random(v_ntop0,$(v_ntop0 + v_nbwall0),$s))
variable      randnj equal round(random(v_ntop0,3304,$s))
variable      randnj equal round(random(v_ntop0,3304,234897))
variable      randatomj equal 2417
variable      randzj equal z[2417]
jump MDPBB.in loopj
variable      randnj equal round(random(v_ntop0,$(v_ntop0 + v_nbwall0),$s))
variable      randnj equal round(random(v_ntop0,3304,$s))
variable      randnj equal round(random(v_ntop0,3304,234897))
variable      randatomj equal 2440
variable      randzj equal z[2440]
jump MDPBB.in loopj
variable      randnj equal round(random(v_ntop0,$(v_ntop0 + v_nbwall0),$s))
variable      randnj equal round(random(v_ntop0,3304,$s))
variable      randnj equal round(random(v_ntop0,3304,234897))
variable      randatomj equal 2611
variable      randzj equal z[2611]
jump MDPBB.in loopj
variable      randnj equal round(random(v_ntop0,$(v_ntop0 + v_nbwall0),$s))
variable      randnj equal round(random(v_ntop0,3304,$s))
variable      randnj equal round(random(v_ntop0,3304,234897))
variable      randatomj equal 2946
variable      randzj equal z[2946]
jump MDPBB.in loopj
variable      randnj equal round(random(v_ntop0,$(v_ntop0 + v_nbwall0),$s))
variable      randnj equal round(random(v_ntop0,3304,$s))
variable      randnj equal round(random(v_ntop0,3304,234897))
variable      randatomj equal 2200
variable      randzj equal z[2200]
jump MDPBB.in loopj
variable      randnj equal round(random(v_ntop0,$(v_ntop0 + v_nbwall0),$s))
variable      randnj equal round(random(v_ntop0,3304,$s))
variable      randnj equal round(random(v_ntop0,3304,234897))
variable      randatomj equal 2635
variable      randzj equal z[2635]
jump MDPBB.in loopj
variable      randnj equal round(random(v_ntop0,$(v_ntop0 + v_nbwall0),$s))
variable      randnj equal round(random(v_ntop0,3304,$s))
variable      randnj equal round(random(v_ntop0,3304,234897))
variable      randatomj equal 2600
variable      randzj equal z[2600]
set           atom 2600 type 4
  1 settings made for type
group         bwg id 2600
11 atoms in group bwg
variable      bwgcount equal count(bwg)
bwg contains 11
print         "j = $(v_j)"
j = 11
variable      x0 equal x[2600]
variable      y0 equal y[2600]
variable      check0 equal 3604
variable      b equal 3604+1
create_atoms  1 single 7.937005259841 18.2551120976343 17 mol bs 24987 units box remap yes rotate 0 0 0 1
Created 30 atoms
variable      check1 equal 3634
create_bonds  single/bond 2 2600 $b
create_bonds  single/bond 2 2600 3605
next j
jump MDPBB.in loopj
variable      randnj equal round(random(v_ntop0,$(v_ntop0 + v_nbwall0),$s))
variable      randnj equal round(random(v_ntop0,3304,$s))
variable      randnj equal round(random(v_ntop0,3304,234897))
variable      randatomj equal 3200
variable      randzj equal z[3200]
set           atom 3200 type 4
  1 settings made for type
group         bwg id 3200
12 atoms in group bwg
variable      bwgcount equal count(bwg)
bwg contains 12
print         "j = $(v_j)"
j = 12
variable      x0 equal x[3200]
variable      y0 equal y[3200]
variable      check0 equal 3634
variable      b equal 3634+1
create_atoms  1 single 19.0488126236184 13.4929089417297 17 mol bs 24987 units box remap yes rotate 0 0 0 1
Created 30 atoms
variable      check1 equal 3664
create_bonds  single/bond 2 3200 $b
create_bonds  single/bond 2 3200 3635
next j
jump MDPBB.in loopj
variable      randnj equal round(random(v_ntop0,$(v_ntop0 + v_nbwall0),$s))
variable      randnj equal round(random(v_ntop0,3304,$s))
variable      randnj equal round(random(v_ntop0,3304,234897))
variable      randatomj equal 2281
variable      randzj equal z[2281]
set           atom 2281 type 4
  1 settings made for type
group         bwg id 2281
13 atoms in group bwg
variable      bwgcount equal count(bwg)
bwg contains 13
print         "j = $(v_j)"
j = 13
variable      x0 equal x[2281]
variable      y0 equal y[2281]
variable      check0 equal 3664
variable      b equal 3664+1
create_atoms  1 single 2.3811015779523 9.5244063118092 17 mol bs 24987 units box remap yes rotate 0 0 0 1
Created 30 atoms
variable      check1 equal 3694
create_bonds  single/bond 2 2281 $b
create_bonds  single/bond 2 2281 3665
next j
jump MDPBB.in loopj
variable      randnj equal round(random(v_ntop0,$(v_ntop0 + v_nbwall0),$s))
variable      randnj equal round(random(v_ntop0,3304,$s))
variable      randnj equal round(random(v_ntop0,3304,234897))
variable      randatomj equal 2788
variable      randzj equal z[2788]
jump MDPBB.in loopj
variable      randnj equal round(random(v_ntop0,$(v_ntop0 + v_nbwall0),$s))
variable      randnj equal round(random(v_ntop0,3304,$s))
variable      randnj equal round(random(v_ntop0,3304,234897))
variable      randatomj equal 2241
variable      randzj equal z[2241]
set           atom 2241 type 4
  1 settings made for type
group         bwg id 2241
14 atoms in group bwg
variable      bwgcount equal count(bwg)
bwg contains 14
print         "j = $(v_j)"
j = 14
variable      x0 equal x[2241]
variable      y0 equal y[2241]
variable      check0 equal 3694
variable      b equal 3694+1
create_atoms  1 single 4.7622031559046 7.1433047338569 17 mol bs 24987 units box remap yes rotate 0 0 0 1
Created 30 atoms
variable      check1 equal 3724
create_bonds  single/bond 2 2241 $b
create_bonds  single/bond 2 2241 3695
next j
jump MDPBB.in loopj
variable      randnj equal round(random(v_ntop0,$(v_ntop0 + v_nbwall0),$s))
variable      randnj equal round(random(v_ntop0,3304,$s))
variable      randnj equal round(random(v_ntop0,3304,234897))
variable      randatomj equal 3156
variable      randzj equal z[3156]
jump MDPBB.in loopj
variable      randnj equal round(random(v_ntop0,$(v_ntop0 + v_nbwall0),$s))
variable      randnj equal round(random(v_ntop0,3304,$s))
variable      randnj equal round(random(v_ntop0,3304,234897))
variable      randatomj equal 2192
variable      randzj equal z[2192]
set           atom 2192 type 4
  1 settings made for type
group         bwg id 2192
15 atoms in group bwg
variable      bwgcount equal count(bwg)
bwg contains 15
print         "j = $(v_j)"
j = 15
variable      x0 equal x[2192]
variable      y0 equal y[2192]
variable      check0 equal 3724
variable      b equal 3724+1
create_atoms  1 single 7.1433047338569 3.1748021039364 17 mol bs 24987 units box remap yes rotate 0 0 0 1
Created 30 atoms
variable      check1 equal 3754
create_bonds  single/bond 2 2192 $b
create_bonds  single/bond 2 2192 3725
next j
jump MDPBB.in loopj
variable      randnj equal round(random(v_ntop0,$(v_ntop0 + v_nbwall0),$s))
variable      randnj equal round(random(v_ntop0,3304,$s))
variable      randnj equal round(random(v_ntop0,3304,234897))
variable      randatomj equal 2381
variable      randzj equal z[2381]
jump MDPBB.in loopj
variable      randnj equal round(random(v_ntop0,$(v_ntop0 + v_nbwall0),$s))
variable      randnj equal round(random(v_ntop0,3304,$s))
variable      randnj equal round(random(v_ntop0,3304,234897))
variable      randatomj equal 2466
variable      randzj equal z[2466]
jump MDPBB.in loopj
variable      randnj equal round(random(v_ntop0,$(v_ntop0 + v_nbwall0),$s))
variable      randnj equal round(random(v_ntop0,3304,$s))
variable      randnj equal round(random(v_ntop0,3304,234897))
variable      randatomj equal 2675
variable      randzj equal z[2675]
jump MDPBB.in loopj
variable      randnj equal round(random(v_ntop0,$(v_ntop0 + v_nbwall0),$s))
variable      randnj equal round(random(v_ntop0,3304,$s))
variable      randnj equal round(random(v_ntop0,3304,234897))
variable      randatomj equal 2513
variable      randzj equal z[2513]
set           atom 2513 type 4
  1 settings made for type
group         bwg id 2513
16 atoms in group bwg
variable      bwgcount equal count(bwg)
bwg contains 16
print         "j = $(v_j)"
j = 16
variable      x0 equal x[2513]
variable      y0 equal y[2513]
variable      check0 equal 3754
variable      b equal 3754+1
create_atoms  1 single 5.5559036818887 12.6992084157456 17 mol bs 24987 units box remap yes rotate 0 0 0 1
Created 30 atoms
variable      check1 equal 3784
create_bonds  single/bond 2 2513 $b
create_bonds  single/bond 2 2513 3755
next j
jump MDPBB.in loopj
variable      randnj equal round(random(v_ntop0,$(v_ntop0 + v_nbwall0),$s))
variable      randnj equal round(random(v_ntop0,3304,$s))
variable      randnj equal round(random(v_ntop0,3304,234897))
variable      randatomj equal 3027
variable      randzj equal z[3027]
jump MDPBB.in loopj
variable      randnj equal round(random(v_ntop0,$(v_ntop0 + v_nbwall0),$s))
variable      randnj equal round(random(v_ntop0,3304,$s))
variable      randnj equal round(random(v_ntop0,3304,234897))
variable      randatomj equal 2723
variable      randzj equal z[2723]
jump MDPBB.in loopj
variable      randnj equal round(random(v_ntop0,$(v_ntop0 + v_nbwall0),$s))
variable      randnj equal round(random(v_ntop0,3304,$s))
variable      randnj equal round(random(v_ntop0,3304,234897))
variable      randatomj equal 2612
variable      randzj equal z[2612]
jump MDPBB.in loopj
variable      randnj equal round(random(v_ntop0,$(v_ntop0 + v_nbwall0),$s))
variable      randnj equal round(random(v_ntop0,3304,$s))
variable      randnj equal round(random(v_ntop0,3304,234897))
variable      randatomj equal 2739
variable      randzj equal z[2739]
jump MDPBB.in loopj
variable      randnj equal round(random(v_ntop0,$(v_ntop0 + v_nbwall0),$s))
variable      randnj equal round(random(v_ntop0,3304,$s))
variable      randnj equal round(random(v_ntop0,3304,234897))
variable      randatomj equal 2039
variable      randzj equal z[2039]
jump MDPBB.in loopj
variable      randnj equal round(random(v_ntop0,$(v_ntop0 + v_nbwall0),$s))
variable      randnj equal round(random(v_ntop0,3304,$s))
variable      randnj equal round(random(v_ntop0,3304,234897))
variable      randatomj equal 2108
variable      randzj equal z[2108]
jump MDPBB.in loopj
variable      randnj equal round(random(v_ntop0,$(v_ntop0 + v_nbwall0),$s))
variable      randnj equal round(random(v_ntop0,3304,$s))
variable      randnj equal round(random(v_ntop0,3304,234897))
variable      randatomj equal 2505
variable      randzj equal z[2505]
set           atom 2505 type 4
  1 settings made for type
group         bwg id 2505
17 atoms in group bwg
variable      bwgcount equal count(bwg)
bwg contains 17
print         "j = $(v_j)"
j = 17
variable      x0 equal x[2505]
variable      y0 equal y[2505]
variable      check0 equal 3784
variable      b equal 3784+1
create_atoms  1 single 2.3811015779523 12.6992084157456 17 mol bs 24987 units box remap yes rotate 0 0 0 1
Created 30 atoms
variable      check1 equal 3814
create_bonds  single/bond 2 2505 $b
create_bonds  single/bond 2 2505 3785
next j
jump MDPBB.in loopj
variable      randnj equal round(random(v_ntop0,$(v_ntop0 + v_nbwall0),$s))
variable      randnj equal round(random(v_ntop0,3304,$s))
variable      randnj equal round(random(v_ntop0,3304,234897))
variable      randatomj equal 2414
variable      randzj equal z[2414]
jump MDPBB.in loopj
variable      randnj equal round(random(v_ntop0,$(v_ntop0 + v_nbwall0),$s))
variable      randnj equal round(random(v_ntop0,3304,$s))
variable      randnj equal round(random(v_ntop0,3304,234897))
variable      randatomj equal 2468
variable      randzj equal z[2468]
jump MDPBB.in loopj
variable      randnj equal round(random(v_ntop0,$(v_ntop0 + v_nbwall0),$s))
variable      randnj equal round(random(v_ntop0,3304,$s))
variable      randnj equal round(random(v_ntop0,3304,234897))
variable      randatomj equal 2622
variable      randzj equal z[2622]
set           atom 2622 type 4
  1 settings made for type
group         bwg id 2622
18 atoms in group bwg
variable      bwgcount equal count(bwg)
bwg contains 18
print         "j = $(v_j)"
j = 18
variable      x0 equal x[2622]
variable      y0 equal y[2622]
variable      check0 equal 3814
variable      b equal 3814+1
create_atoms  1 single 6.3496042078728 19.8425131496025 17 mol bs 24987 units box remap yes rotate 0 0 0 1
Created 30 atoms
variable      check1 equal 3844
create_bonds  single/bond 2 2622 $b
create_bonds  single/bond 2 2622 3815
next j
jump MDPBB.in loopj
variable      randnj equal round(random(v_ntop0,$(v_ntop0 + v_nbwall0),$s))
variable      randnj equal round(random(v_ntop0,3304,$s))
variable      randnj equal round(random(v_ntop0,3304,234897))
variable      randatomj equal 3075
variable      randzj equal z[3075]
jump MDPBB.in loopj
variable      randnj equal round(random(v_ntop0,$(v_ntop0 + v_nbwall0),$s))
variable      randnj equal round(random(v_ntop0,3304,$s))
variable      randnj equal round(random(v_ntop0,3304,234897))
variable      randatomj equal 3037
variable      randzj equal z[3037]
jump MDPBB.in loopj
variable      randnj equal round(random(v_ntop0,$(v_ntop0 + v_nbwall0),$s))
variable      randnj equal round(random(v_ntop0,3304,$s))
variable      randnj equal round(random(v_ntop0,3304,234897))
variable      randatomj equal 3291
variable      randzj equal z[3291]
set           atom 3291 type 4
  1 settings made for type
group         bwg id 3291
19 atoms in group bwg
variable      bwgcount equal count(bwg)
bwg contains 19
print         "j = $(v_j)"
j = 19
variable      x0 equal x[3291]
variable      y0 equal y[3291]
variable      check0 equal 3844
variable      b equal 3844+1
create_atoms  1 single 15.0803099936979 19.0488126236184 17 mol bs 24987 units box remap yes rotate 0 0 0 1
Created 30 atoms
variable      check1 equal 3874
create_bonds  single/bond 2 3291 $b
create_bonds  single/bond 2 3291 3845
next j
jump MDPBB.in loopj
variable      randnj equal round(random(v_ntop0,$(v_ntop0 + v_nbwall0),$s))
variable      randnj equal round(random(v_ntop0,3304,$s))
variable      randnj equal round(random(v_ntop0,3304,234897))
variable      randatomj equal 2088
variable      randzj equal z[2088]
jump MDPBB.in loopj
variable      randnj equal round(random(v_ntop0,$(v_ntop0 + v_nbwall0),$s))
variable      randnj equal round(random(v_ntop0,3304,$s))
variable      randnj equal round(random(v_ntop0,3304,234897))
variable      randatomj equal 2662
variable      randzj equal z[2662]
jump MDPBB.in loopj
variable      randnj equal round(random(v_ntop0,$(v_ntop0 + v_nbwall0),$s))
variable      randnj equal round(random(v_ntop0,3304,$s))
variable      randnj equal round(random(v_ntop0,3304,234897))
variable      randatomj equal 3110
variable      randzj equal z[3110]
jump MDPBB.in loopj
variable      randnj equal round(random(v_ntop0,$(v_ntop0 + v_nbwall0),$s))
variable      randnj equal round(random(v_ntop0,3304,$s))
variable      randnj equal round(random(v_ntop0,3304,234897))
variable      randatomj equal 3228
variable      randzj equal z[3228]
set           atom 3228 type 4
  1 settings made for type
group         bwg id 3228
20 atoms in group bwg
variable      bwgcount equal count(bwg)
bwg contains 20
print         "j = $(v_j)"
j = 20
variable      x0 equal x[3228]
variable      y0 equal y[3228]
variable      check0 equal 3874
variable      b equal 3874+1
create_atoms  1 single 10.3181068377933 15.874010519682 17 mol bs 24987 units box remap yes rotate 0 0 0 1
Created 30 atoms
variable      check1 equal 3904
create_bonds  single/bond 2 3228 $b
create_bonds  single/bond 2 3228 3875
next j
jump MDPBB.in loopj

# Assign the beads to 2 different groups of grafted and non-grafted beads

group         gbeads type 2
40 atoms in group gbeads
group         fbeads type 3
1160 atoms in group fbeads

#--- Create harmonic bonds in the walls ---#
bond_coeff    3 harmonic 800.0 $(1.5874 * sqrt(2)/2)
bond_coeff    3 harmonic 800.0 1.1224613044555256103
create_bonds  many bwall bwall 3 0.5 1.2
  update every 1 steps, delay 10 steps, check yes
Added 6964 bonds, new total = 8164
create_bonds  many twall twall 3 0.5 1.2
Added 6964 bonds, new total = 15128

info system

fix           1 twall setforce 0.0 0.0 0.0  # Freeze top wall
fix           2 bwall setforce 0.0 0.0 0.0  # Freeze bottom wall

#dump           1 all image 250 stg0.*.jpg type type zoom 2 view 60 120 bond none none
#dump          2 all atom 50 dump.brush
#dump          3 all custom 100 dump.random.bin id x y z vx vy vz

#--- Minimize the system to obtain the initial structure for the PB bilayer ---#

timestep      0.010
minimize      0.0 1.0e-8 10000 100000
  update every 1 steps, delay 0 steps, check yes
Step Temp E_pair E_mol TotEng Press
0            0   0.37643357    21.282372    21.658806    4.4510923
Loop time of 0.511309 on 32 procs for 70 steps with 3904 atoms

Minimization stats:
  Stopping criterion = linesearch alpha is zero
  Energy initial, next-to-last, final =
  Force two-norm initial, final = 5127.95 95.578
  Force max component initial, final = 634.791 7.99385
  Final line search alpha, max atom move = 3.57769e-09 2.85995e-08
  Iterations, force evaluations = 70 161

#--- Shrink the simulation box such that it encloses the system exactly ---#

variable z_f equal bound(all,zmin)
variable z_c equal bound(all,zmax)

change_box all z final 0 $(v_z_c + 0.1) units box
change_box all z final 0 70.099999999999994316 units box
  orthogonal box = (0 0 0) to (20 20 70.1)

info variables                              # For diagnostics

minimize      0.0 1.0e-8 10000 100000
Step Temp E_pair E_mol TotEng Press
70            0 -0.051229597    20.161078    20.109849    4.4197895
Loop time of 0.167423 on 32 procs for 7 steps with 3904 atoms

Minimization stats:
  Stopping criterion = linesearch alpha is zero
  Energy initial, next-to-last, final =
  Force two-norm initial, final = 95.578 77.3489
  Force max component initial, final = 7.99385 7.06404
  Final line search alpha, max atom move = 6.33996e-09 4.47857e-08
  Iterations, force evaluations = 7 53

#--- Remove the fixes for the restart file ---#
unfix         1
unfix         2

#--- Write Restart File ---#

write_restart  MDPBB.rst
#write_data     MDPBB.data
print        "Created a Polymer Brush Bilayer with Surface Coverage = $(v_M/(lx*ly))"
Created a Polymer Brush Bilayer with Surface Coverage = 0.050000000000000002776

label          sim

include        ecs.in
# This is an input script that creates a mono disperse polymer brush bilayer
# A coarse grained bead-spring model is used for the polymers which are end
# grafted to the surfaces of 2 opposing FCC walls at random sites.

clear

#--- Read in the Restart file ---#

read_restart    MDPBB.rst
  restoring atom style bond from restart
  orthogonal box = (0 0 0) to (20 20 70.1)
  restoring pair style lj/cut from restart
  restoring bond style hybrid from restart
  3904 atoms
  15128 bonds
  read_restart CPU = 0.0121551 secs
reset_timestep  0

#--- Redefine the bond coeffs ---#

bond_coeff    1 fene 30.0 1.5 0.0 0.0      # Values obtained from literature [Grest, Galushcko]
bond_coeff    2 fene 30.0 1.5 0.0 0.0       # This is the grafting bond between the polymer and the wall atom
bond_coeff    3 harmonic 800.0 $(1.5874 * sqrt(2)/2)
bond_coeff    3 harmonic 800.0 1.1224613044555256103

neigh_modify   every 1 delay 0 check yes

#--- Define variables ---#

# for dimensional values: eps = 4.14e-21 J at T = 300K and sigma = 0.5nm

#--- Moved to main.in ---#
#variable       Tstep     equal 0.005                       # Timestep in Tau (default = 0.005)
#variable       Nequil    equal 10000                       # Number of timesteps to equilibrate
#variable       Ncomp     equal 200000                      # Number of timesteps to compress - until no more occilation of walls
#variable       Nshear    equal 1000000                     # Number of timesteps to shear - use approx 4ns for 10m/s
#variable       Nthermo   equal 1000                        # Number of timesteps between thermo data prints
#variable       Ndump_e   equal 10000
#variable       Ndump_c   equal 10000                       # Number of timesteps per dump file (compression)
#variable       Ndump_s   equal 10000                       # Number of timesteps per dump file (shear)
#variable       Wall_v    equal 0.0002                      # Wall velocity (A/fs) - equal to 10 m/s
#variable       Pcomp     equal 1
variable        Pcomp2    equal 1
variable        Wall_v2   equal 0.5

# For Equilibration - density profiles (10 for entire run)
variable       Nfreqe   equal 300000/10
variable       Neverye  equal 100                           # Use input values every this many timesteps
variable       Nrepeate equal 30000/100

# For compression - density profiles (10 for entire run)
variable       Nfreqc   equal 700000/10
variable       Neveryc  equal 100                          # Use input values every this many timesteps
variable       Nrepeatc equal 70000/100

# For Shear - density profiles (10 for entire run)
variable       Nfreqs   equal 4000000/10
variable       Neverys  equal 100                          # Use input values every this many timesteps
variable       Nrepeats equal 400000/100

variable       binres   equal  0.001                       # Giving 1000 data points across the sim. box

variable       bwzmin  equal bound(bwall,zmin)
variable       bwzmax  equal bound(bwall,zmax)
variable       twzmin  equal bound(twall,zmin)
variable       twzmax  equal bound(twall,zmax)
variable       c       equal count(gbeads)
variable       surfcov equal $(v_M/(lx*ly))
variable       surfcov equal 0.050000000000000002776
variable       D       equal v_twzmin-v_bwzmax
variable       Dout    equal v_twzmax-v_bwzmin
variable       srate   equal (v_Wall_v/v_D)

#--- Define regions and groups ---#

bwzmin = 0
bwzmax = 2.3811015779523
twzmin = 67.6188984220477
twzmax = 70

region         bwallb  block  INF INF INF INF 0 $(v_bwzmin + 0.4) units box
region         bwallb  block  INF INF INF INF 0 0.4000000000000000222 units box
region         bwallm  block  INF INF INF INF $(v_bwzmin + 0.35) $(v_bwzmax - 0.35) units box
region         bwallm  block  INF INF INF INF 0.3499999999999999778 $(v_bwzmax - 0.35) units box
region         bwallm  block  INF INF INF INF 0.3499999999999999778 2.0311015779522998415 units box
region         bwallt  block  INF INF INF INF $(v_bwzmax - 0.7) $(v_bwzmax) units box
region         bwallt  block  INF INF INF INF 1.6811015779522999747 $(v_bwzmax) units box
region         bwallt  block  INF INF INF INF 1.6811015779522999747 2.3811015779522999303 units box
region         bmelt   block  INF INF INF INF $(v_bwzmax) $(v_twzmax / 2) units box
region         bmelt   block  INF INF INF INF 2.3811015779522999303 $(v_twzmax / 2) units box
region         bmelt   block  INF INF INF INF 2.3811015779522999303 35 units box
region         tmelt   block  INF INF INF INF $(v_twzmax / 2)  $(v_twzmin - 0.1) units box
region         tmelt   block  INF INF INF INF 35  $(v_twzmin - 0.1) units box
region         tmelt   block  INF INF INF INF 35  67.518898422047712415 units box
region         twallb  block  INF INF INF INF $(v_twzmin - 0.1) $(v_twzmin + 0.35) units box
region         twallb  block  INF INF INF INF 67.518898422047712415 $(v_twzmin + 0.35) units box
region         twallb  block  INF INF INF INF 67.518898422047712415 67.968898422047701047 units box
region         twallm  block  INF INF INF INF $(v_twzmin + 0.35) $(v_twzmax - 0.35) units box
region         twallm  block  INF INF INF INF 67.968898422047701047 $(v_twzmax - 0.35) units box
region         twallm  block  INF INF INF INF 67.968898422047701047 69.650000000000005684 units box
region         twallt  block  INF INF INF INF $(v_twzmax - 0.35) $(v_twzmax) units box
region         twallt  block  INF INF INF INF 69.650000000000005684 $(v_twzmax) units box
region         twallt  block  INF INF INF INF 69.650000000000005684 70 units box

group          bwsurf  region bwallt
338 atoms in group bwsurf
group          bwbulk  region bwallm
676 atoms in group bwbulk
group          bwout   region bwallb
338 atoms in group bwout
group          bbeads  region bmelt
600 atoms in group bbeads
group          tbeads  region tmelt
600 atoms in group tbeads
group          abeads  union  bbeads tbeads
1200 atoms in group abeads
group          twsurf  region twallb
338 atoms in group twsurf
group          twbulk  region twallm
676 atoms in group twbulk
group          twout   region twallt
338 atoms in group twout
group          rest4bot union abeads twall
2552 atoms in group rest4bot
group          rest4top union abeads bwall
2552 atoms in group rest4top
group          walls    union bwall twall
2704 atoms in group walls
group          alltop   union twall tbeads
1952 atoms in group alltop
# Other groups are: gbeads fbeads bwall twall

info system
info coeffs

#--- Exclude wall-wall interactions ---#

#neigh_modify exclude type 1 1
#neigh_modify exclude type 1 4
#neigh_modify exclude type 4 4

############
# Computes #
############

#compute         sysTemp   all    temp/deform                       # Calculate the temperature without translational velocities
#compute         sysPress  all    pressure sysTemp                  # Calculate the pressure of the entire system of atoms
compute         melTemp   abeads temp
compute         melPress  all    pressure melTemp
compute         wallTemp  walls  temp
compute         wallPress all    pressure wallTemp
variable        melDens   equal  $(mass(abeads))/(lx*ly*v_D)
variable        melDens   equal  1200/(lx*ly*v_D)

#--- Forces and Energies ---#

compute         fbwall  bwall group/group rest4bot
compute         ftwall  twall group/group rest4top
compute         fwalls  bwall group/group twall

#--- Like done in comp_shear.in ---#
group           rest_bot union abeads bwall
2552 atoms in group rest_bot
group           rest_bot2 subtract all bwsurf
3566 atoms in group rest_bot2
compute         ggbot bwsurf group/group rest_bot
compute         ggbot2 bwsurf group/group rest_bot

group           rest_top union abeads twall
2552 atoms in group rest_top
group           rest_top2 subtract all twsurf
3566 atoms in group rest_top2
compute         ggtop twsurf group/group rest_top
compute         ggtop2 twsurf group/group rest_top2

#--- Calculate the applied force on each atom for the pressure applied---#
variable Fcomp equal (1*lx*ly)
variable Fcatom equal (-400)/(count(twout))

#compute	        peratom   all   stress/atom NULL
#compute	        p_all     all   reduce sum c_peratom[1] c_peratom[2] c_peratom[3]
#variable	      press_all equal -(c_p_all[1]+c_p_all[2]+c_p_all[3])/(3*v_volume)

info groups variables                              # For diagnostics

#################
# Equilibration #
#################

#--- Number Density profiles (Equil) ---#
compute         eabeads abeads chunk/atom bin/1d z lower 0.001 units reduced
fix             abeads_edz abeads ave/chunk 100 300 30000 eabeads density/number file abeads_edz
compute         ebbeads bbeads chunk/atom bin/1d z lower 0.001 units reduced
fix             bbeads_edz bbeads  ave/chunk 100 300 30000 ebbeads density/number file bbeads_edz
compute         etbeads tbeads chunk/atom bin/1d z lower 0.001 units reduced
fix             tbeads_edz tbeads  ave/chunk 100 300 30000 etbeads density/number file tbeads_edz

#--- Radius of gyration of the bottom brush chains ---#
compute         chunk_bot bbeads chunk/atom molecule
compute         rgbbeads bbeads gyration/chunk chunk_bot
variable        aveRg    equal  (ave(c_rgbbeads))

#--- Fixes (Equil) ---#

# NVE for all and langevin thermostat for melt
fix             nve_melt abeads nve
fix             lang_melt abeads langevin 1 1 0.1 798753
fix             nve_walls  walls nve

#--- Langevin thermostat the bulk of the walls in y ---#
# Only thermostat the bulk of the wall not the surface or the outer layer
compute         Tempyt     twbulk temp/partial 0 1 0
fix             lang_tbulk twbulk langevin 1 1 0.1 87239 zero yes
fix_modify      lang_tbulk temp Tempyt
compute         Tempyb     bwbulk temp/partial 0 1 0
fix             lang_bbulk bwbulk langevin 1 1 0.1 87239 zero yes
fix_modify      lang_bbulk temp Tempyb

#--- Freeze the outer layer of the walls ---#
fix             freeze_bout bwout setforce 0.0 0.0 0.0
fix             freeze_tout twout setforce 0.0 0.0 0.0

variable        sbot equal  f_freeze_bout[1]/(lx*ly)
variable        pbot equal -f_freeze_bout[3]/(lx*ly)
#--- Thermo output ---#

thermo_style  custom step etotal ke pe epair temp c_melTemp c_wallTemp v_Fcatom v_Pcomp2 press pxx pyy pzz pxy pxz pyz c_melPress c_wallPress v_melDens v_surfcov v_aveRg v_Wall_v2 v_srate v_D v_bwzmax zhi c_fbwall[1] c_fbwall[3] c_ftwall[1] c_ftwall[3] v_sbot v_pbot #c_ggbot[1] c_ggbot[3] c_ggtop[1] c_ggtop[3]
thermo        1000
thermo_modify flush yes

#--- Dumps ---#

#--- Run Equilibration ---#
timestep    0.005
run         300000
  update every 1 steps, delay 0 steps, check yes
Step TotEng KinEng PotEng E_pair Temp c_melTemp c_wallTemp v_Fcatom v_Pcomp2 Press Pxx Pyy Pzz Pxy Pxz Pyz c_melPress c_wallPress v_melDens v_surfcov v_aveRg v_Wall_v2 v_srate v_D v_bwzmax Zhi c_fbwall[1] c_fbwall[3] c_ftwall[1] c_ftwall[3] v_sbot v_pbot
0    20.838075            0    20.838075 -0.051932488            0            0            0    -1.183432            1    4.2527558    4.9119751    4.9119056    2.9343868 -1.3412919e-05 6.5417148e-07 -1.4562143e-06    4.2527558    4.2527558  0.045985612         0.05    3.7359549          0.5 0.0076642686    65.237797    2.3811016         70.1            0            0            0            0 4.5474735e-15    63.914914
Averages over the last 151 of 301 rows, steps 150000 to 300000:
TotEng KinEng PotEng E_pair Temp c_melTemp c_wallTemp v_Fcatom v_Pcomp2 Press Pxx Pyy Pzz Pxy Pxz Pyz c_melPress c_wallPress v_melDens v_surfcov v_aveRg v_Wall_v2 v_srate v_D v_bwzmax Zhi c_fbwall[1] c_fbwall[3] c_ftwall[1] c_ftwall[3] v_sbot v_pbot
11.715 1.24112 10.4739 -0.116256 0.827622 0.998343 0.7522 -1.18343 1 2.14416 3.2198 3.21743 -0.00473795 -0.000409507 -0.000431759 0.002154 2.07165 2.10147 0.0465987 0.05 1.55387 0.5 0.00776645 64.3795 2.80974 70.1 -0.000536321 -0.0841455 0.00118898 0.0834026 -0.0637993 0.0694174
Loop time of 102.007 on 32 procs for 300000 steps with 3904 atoms

#undump      eq

#--- Unfix Equil ---#

unfix abeads_edz
unfix bbeads_edz
unfix tbeads_edz

unfix freeze_tout

###############
# Compression #
###############

#--- Bring the brushes closer together fit the sim box ---#

variable       bbzmax  equal bound(bbeads,zmax)
variable       tbzmin  equal bound(tbeads,zmin)
displace_atoms  alltop move 0.0 0.0 -$(v_tbzmin - v_bbzmax) units box
displace_atoms  alltop move 0.0 0.0 -41.420401982193595813 units box
variable z_f equal bound(all,zmin)
variable z_c equal bound(all,zmax)
change_box all z final 0 $(v_z_c + 0.1) units box
change_box all z final 0 28.679598017806402055 units box
  orthogonal box = (0 0 0) to (20 20 28.6796)

print         "D = $D"
D = 22.9190106997847
print         "D = $(v_twzmin - v_bwzmax)"
D = 22.919010699784749363
info variables

#--- Computes ---#

# Number density profiles

compute         cabeads abeads chunk/atom bin/1d z lower 0.001 units reduced
fix             abeads_cdz abeads  ave/chunk 100 700 70000 cabeads density/number file abeads_cdz
compute         cbbeads bbeads chunk/atom bin/1d z lower 0.001 units reduced
fix             bbeads_cdz bbeads  ave/chunk 100 700 70000 cbbeads density/number file bbeads_cdz
compute         ctbeads tbeads chunk/atom bin/1d z lower 0.001 units reduced
fix             tbeads_cdz tbeads  ave/chunk 100 700 70000 ctbeads density/number file tbeads_cdz

#--- Fixes ---#
fix             freeze_tout twout setforce 0.0 0.0 NULL
fix             comp_tout twout aveforce 0.0 0.0 -1.18343195266272
fix             rwalls all wall/reflect zlo EDGE zhi EDGE

#--- Dumps ---#

#--- Run Compression ---#
timestep    0.005
run         700000
Step TotEng KinEng PotEng E_pair Temp c_melTemp c_wallTemp v_Fcatom v_Pcomp2 Press Pxx Pyy Pzz Pxy Pxz Pyz c_melPress c_wallPress v_melDens v_surfcov v_aveRg v_Wall_v2 v_srate v_D v_bwzmax Zhi c_fbwall[1] c_fbwall[3] c_ftwall[1] c_ftwall[3] v_sbot v_pbot
300000    11.694803    1.2188135     10.47599  -0.12437437    0.8127505   0.99255572   0.73329297    -1.183432            1     5.036794    7.7239359    7.6925497  -0.30610379 -0.0051244712 -0.056288342 0.0034121405    4.8640151    4.9330552    0.1308957         0.05     1.543843          0.5   0.02181595    22.919011    2.8451869    28.679598 -0.012041106 -0.094133502 -0.010921995  0.063480579  0.042865661   -2.5147525
Averages over the last 351 of 701 rows, steps 650000 to 1000000:
TotEng KinEng PotEng E_pair Temp c_melTemp c_wallTemp v_Fcatom v_Pcomp2 Press Pxx Pyy Pzz Pxy Pxz Pyz c_melPress c_wallPress v_melDens v_surfcov v_aveRg v_Wall_v2 v_srate v_D v_bwzmax Zhi c_fbwall[1] c_fbwall[3] c_ftwall[1] c_ftwall[3] v_sbot v_pbot
11.6271 1.24204 10.3851 -0.176464 0.828241 1.00362 0.750754 -1.18343 1 5.47058 8.04303 8.03762 0.331104 -0.00231869 -0.00154413 0.00215746 5.29369 5.36569 0.740525 0.05 1.32884 0.5 0.123421 4.05192 2.80973 28.6796 -0.00241178 -0.182176 0.000169189 0.183286 0.0366529 1.13015
Loop time of 263.707 on 32 procs for 700000 steps with 3904 atoms

#undump      comp

unfix abeads_cdz
unfix bbeads_cdz
unfix tbeads_cdz

###############
# Shearing    #
###############

#--- Keep only thermostat on walls ---#
unfix lang_melt

#variable    vtop equal (v_Wall_v/2)
#variable    vbot equal -(v_Wall_v/2)
velocity    twout set $(v_Wall_v/2) 0.0 0.0  units box
velocity    twout set 0.25 0.0 0.0  units box
velocity    bwout set -$(v_Wall_v/2) 0.0 0.0  units box
velocity    bwout set -0.25 0.0 0.0  units box

#--- Number Density profiles ---#

compute         sabeads abeads chunk/atom bin/1d z lower 0.001 units reduced
fix             abeads_sdz abeads  ave/chunk 100 4000 400000 sabeads density/number file abeads_sdz
compute         sbbeads bbeads chunk/atom bin/1d z lower 0.001 units reduced
fix             bbeads_sdz bbeads  ave/chunk 100 4000 400000 sbbeads density/number file bbeads_sdz
compute         stbeads tbeads chunk/atom bin/1d z lower 0.001 units reduced
fix             tbeads_sdz tbeads  ave/chunk 100 4000 400000 stbeads density/number file tbeads_sdz

#--- Temperature and Velocity profiles ---#
compute        eall all chunk/atom bin/1d z lower 0.001 units reduced
#compute        biasT all temp/profile 1 1 1 xyz 100 100 100
fix            temp_prof   all ave/chunk 100 4000 400000 eall temp file temp_sz
fix            vel_prof_x_s all ave/chunk 100 4000 400000 eall vx vy file velp_sz
#--- Ave s_bot and p_bot ---#

fix             fc_ave all ave/time 100 4000 400000 v_sbot v_pbot file fc_ave.dump

#--- Dumps ---#

#--- Run Shear ---#
timestep    0.005
run         4000000
Step TotEng KinEng PotEng E_pair Temp c_melTemp c_wallTemp v_Fcatom v_Pcomp2 Press Pxx Pyy Pzz Pxy Pxz Pyz c_melPress c_wallPress v_melDens v_surfcov v_aveRg v_Wall_v2 v_srate v_D v_bwzmax Zhi c_fbwall[1] c_fbwall[3] c_ftwall[1] c_ftwall[3] v_sbot v_pbot
1000000    11.651493    1.2410976    10.410396  -0.16532285   0.82761038   0.97805988   0.76117999    -1.183432            1      5.53222    8.1099588    8.0557171   0.43098421 -0.0042809874  0.030355331  0.024509946    5.3528705    5.4299963   0.75391587         0.05    1.3569568          0.5   0.12565264    3.9792238    2.7993912    28.679598 -0.0033209018  -0.18119145  0.020337101   0.21579798    1.8423168  -0.52002726
Averages over the last 2001 of 4001 rows, steps 3000000 to 5000000:
TotEng KinEng PotEng E_pair Temp c_melTemp c_wallTemp v_Fcatom v_Pcomp2 Press Pxx Pyy Pzz Pxy Pxz Pyz c_melPress c_wallPress v_melDens v_surfcov v_aveRg v_Wall_v2 v_srate v_D v_bwzmax Zhi c_fbwall[1] c_fbwall[3] c_ftwall[1] c_ftwall[3] v_sbot v_pbot
11.8843 1.40857 10.4757 -0.155852 0.93929 1.25663 0.798872 -1.18343 1 5.47001 8.02441 8.0491 0.336531 0.00152113 -0.0375583 0.00109204 5.28178 5.33867 0.712976 0.05 1.95797 0.5 0.118829 4.2087 2.80985 28.6796 0.00117978 -0.183935 -0.000171433 0.185514 0.0985469 0.99836
Loop time of 1462.54 on 32 procs for 4000000 steps with 3904 atoms
