LAMMPS (5 Jun 2019)
#--- Brush Variables---#
variable      f      equal  0.5
variable      M      equal  $(v_f * 20)                 # The number of polymer chains on each brush
variable      M      equal  10
variable      N      string 30                 # The number of beads per chain
variable      xhi    equal  $(sqrt(v_f) * 20)                 # The width of the polymer Brush
variable      xhi    equal  14.142135623730951011
variable      yhi    equal  $(sqrt(v_f) * 20)                 # The length of the polymer Brush
variable      yhi    equal  14.142135623730951011
variable      wthick equal  3                  # The thickness of the walls wthick=1,2,3,4 gives 2,3,4,6 layers respectively

#--- Simulation Variables ---#
variable       Temp      index 1        #0.8 1 1.68                 #[Grest96]
variable       Tstep     equal 0.005                       # Timestep in Tau (default = 0.005)
variable       Nequil    equal 300000                       # Number of timesteps to equilibrate
variable       Ncomp     equal 700000                     # Number of timesteps to compress - until no more occilation of walls
variable       Nshear    equal 4000000      #2000000                      # Number of timesteps to shear - use approx 4ns for 10m/s
variable       Nthermo   equal 1000                        # Number of timesteps between thermo data prints
variable       Ndump_e   equal 10000
variable       Ndump_c   equal 10000                      # Number of timesteps per dump file (compression)
variable       Ndump_s   equal 10000                       # Number of timesteps per dump file (shear)
variable       Wall_v    index 0.5   #0.001 0.01 0.1 0.2 0.4 0.6 0.8 1 1.2 1.4 1.6 1.8 2   # 0.005 0.05 0.1 0.5 1.5 0.001 0.003 0.2 0.0002 2                      # Wall velocity (A/fs) - equal to 10 m/s
variable       Pcomp     index 1 0.5 2 0.05 4 8

include        MDPBB.in
# This is an input script that creates a mono disperse polymer brush bilayer
# A coarse grained bead-spring model is used for the polymers which are end
# grafted to the surfaces of 2 opposing FCC walls at random sites.

#--- Initialization ---#

dimension     3
boundary      p p f
units         lj
atom_style    bond

#--- Moved to main.in ---#
#variable      M      equal  50                # The number of polymer chains on each brush
#variable      N      string 80                # The number of beads per chain
#variable      xhi    equal  15                # The width of the polymer Brush
#variable      yhi    equal  20                # The length of the polymer Brush
#variable      wthick equal  3                 # The thickness of the walls wthick=1,2,3,4 gives 2,3,4,6 layers respectively

variable      zhi    equal  $(1.1 * 2 * v_N + (2 * v_wthick))  # The initial height of the simulation box the value is such that no overlaps occur
variable      zhi    equal  72
variable      z0     equal  $((v_zhi)/4 - (v_N)/30)          # This is the location at which to place the CoM of the molecule
variable      z0     equal  17

print "The number of grafted chains = $(v_M)"
The number of grafted chains = 10
print "The number of beads per chain = $(v_N)"
The number of beads per chain = 30

variable      check  equal count(all)         # The number of atoms in the system
variable      ntwall equal count(twall)       # The number of atoms in the top wall
variable      nbwall equal count(bwall)       # The number of atoms in the bottom wall
variable      s equal 234897  #45335              # Seed for the RNG

zhi = 72

#--- Create the simulation box ---#

region        sbox block 0 14.142135623731 0 14.142135623731 0 72
create_box    4 sbox bond/types 3 extra/bond/per/atom 12 extra/special/per/atom 2
Created orthogonal box = (0 0 0) to (14.1421 14.1421 72)

mass          1 2.0                   # Wall atoms that are not grafted
mass          2 1.0                   # Grafted bead
mass          3 1.0                   # The rest of the beads on the chain
mass          4 2.0                   # Wall atoms that the chains are grafted to

bond_style    hybrid fene harmonic    # Finitely extensible linearly elastic bond between neighbouring beads
#bond_coeff    1 fene 30.0 1.5 0.0 0.0      # Values obtained from literature [Grest, Galushcko]
bond_coeff    1 fene 30.0 30.0 0.0 0.0
bond_coeff    2 fene 30.0 30.0 0.0 0.0       # This is the grafting bond between the polymer and the wall atom
special_bonds fene                    #
pair_style	  lj/cut 1.122462         # LJ potential with rc=2^1/6
#pair_coeff	  * * 1.0 1.0             # LJ potential acts between all atoms
pair_coeff    1 1 0.0 0.0
pair_coeff    1 2 1.0 1.0
pair_coeff    1 3 1.0 1.0
pair_coeff    2 2 1.0 1.0
pair_coeff    2 3 1.0 1.0
pair_coeff    2 4 1.0 1.0
pair_coeff    3 3 1.0 1.0
pair_coeff    3 4 1.0 1.0
pair_coeff    4 4 0.0 0.0
neighbor      10 bin                  #
neigh_modify  one 4000

#--- Create and read the molecule file ---#
python        BSMolf input 1 $N format i file BSMolf.py
python        BSMolf input 1 30 format i file BSMolf.py
python        BSMolf invoke    # Call the python function with number of beads to write the mol file
molecule      bs     bsmol.txt     # Read the Mol file to define the polymer chain
Read molecule bs:
  30 atoms with max type 2
  29 bonds with max type 1
  0 angles with max type 0
  0 dihedrals with max type 0
  0 impropers with max type 0

#--- Define the FCC wall region ---#
region        wall  block 0 14.142135623731 0 14.142135623731 0 3
lattice       fcc 1
Lattice spacing in x,y,z = 1.5874 1.5874 1.5874

#--- Create the Top Brush  (At the bottom then rotate 180 degrees to top) ---#

create_atoms  1 region wall
Created 648 atoms
group         twall  region wall
648 atoms in group twall
#group         tsurf  region wsurf

# A loop to insert the Chains into the sim box
variable      i loop $M                                   # Index to insert N total number of chains
variable      i loop 10
label         loop                                        # Start of loop
variable      randni equal round(random(1,648,$s))
variable      randni equal round(random(1,648,234897))
variable      randatomi equal 407
variable      randzi equal z[407]
# if the chosen atom is not a surface atom then restart the loop
set           atom 407 type 4
  1 settings made for type
group         twg id 407
1 atoms in group twg
variable      twgcount equal count(twg)
twg contains 1
print         "i = $(v_i)"                                # The index i should always be equal to the number of atom in twg
i = 1
variable      x0 equal x[407]
variable      y0 equal y[407]
variable      check0 equal 648
variable      b equal 648+1
# Otherwise insert the chain directly above the chosen wall atom pointing perpendicular to the wall
create_atoms  1 single 3.9685026299205 3.1748021039364 17 mol bs 24987 units box remap yes rotate 0 0 0 1
Created 30 atoms
variable      check1 equal 678
# Check that the molecule has indeed been inserted (This check is no longer an issue).
create_bonds  single/bond 2 407 $b
create_bonds  single/bond 2 407 649
next i
jump MDPBB.in loop    # End of the loop
variable      randni equal round(random(1,648,$s))
variable      randni equal round(random(1,648,234897))
variable      randatomi equal 103
variable      randzi equal z[103]
# if the chosen atom is not a surface atom then restart the loop
jump MDPBB.in loop
variable      randni equal round(random(1,648,$s))
variable      randni equal round(random(1,648,234897))
variable      randatomi equal 490
variable      randzi equal z[490]
# if the chosen atom is not a surface atom then restart the loop
jump MDPBB.in loop
variable      randni equal round(random(1,648,$s))
variable      randni equal round(random(1,648,234897))
variable      randatomi equal 494
variable      randzi equal z[494]
# if the chosen atom is not a surface atom then restart the loop
jump MDPBB.in loop
variable      randni equal round(random(1,648,$s))
variable      randni equal round(random(1,648,234897))
variable      randatomi equal 471
variable      randzi equal z[471]
# if the chosen atom is not a surface atom then restart the loop
set           atom 471 type 4
  1 settings made for type
group         twg id 471
2 atoms in group twg
variable      twgcount equal count(twg)
twg contains 2
print         "i = $(v_i)"                                # The index i should always be equal to the number of atom in twg
i = 2
variable      x0 equal x[471]
variable      y0 equal y[471]
variable      check0 equal 678
variable      b equal 678+1
# Otherwise insert the chain directly above the chosen wall atom pointing perpendicular to the wall
create_atoms  1 single 0.7937005259841 6.3496042078728 17 mol bs 24987 units box remap yes rotate 0 0 0 1
Created 30 atoms
variable      check1 equal 708
# Check that the molecule has indeed been inserted (This check is no longer an issue).
create_bonds  single/bond 2 471 $b
create_bonds  single/bond 2 471 679
next i
jump MDPBB.in loop    # End of the loop
variable      randni equal round(random(1,648,$s))
variable      randni equal round(random(1,648,234897))
variable      randatomi equal 638
variable      randzi equal z[638]
# if the chosen atom is not a surface atom then restart the loop
jump MDPBB.in loop
variable      randni equal round(random(1,648,$s))
variable      randni equal round(random(1,648,234897))
variable      randatomi equal 309
variable      randzi equal z[309]
# if the chosen atom is not a surface atom then restart the loop
jump MDPBB.in loop
variable      randni equal round(random(1,648,$s))
variable      randni equal round(random(1,648,234897))
variable      randatomi equal 218
variable      randzi equal z[218]
# if the chosen atom is not a surface atom then restart the loop
jump MDPBB.in loop
variable      randni equal round(random(1,648,$s))
variable      randni equal round(random(1,648,234897))
variable      randatomi equal 281
variable      randzi equal z[281]
# if the chosen atom is not a surface atom then restart the loop
jump MDPBB.in loop
variable      randni equal round(random(1,648,$s))
variable      randni equal round(random(1,648,234897))
variable      randatomi equal 469
variable      randzi equal z[469]
# if the chosen atom is not a surface atom then restart the loop
jump MDPBB.in loop
variable      randni equal round(random(1,648,$s))
variable      randni equal round(random(1,648,234897))
variable      randatomi equal 580
variable      randzi equal z[580]
# if the chosen atom is not a surface atom then restart the loop
set           atom 580 type 4
  1 settings made for type
group         twg id 580
3 atoms in group twg
variable      twgcount equal count(twg)
twg contains 3
print         "i = $(v_i)"                                # The index i should always be equal to the number of atom in twg
i = 3
variable      x0 equal x[580]
variable      y0 equal y[580]
variable      check0 equal 708
variable      b equal 708+1
# Otherwise insert the chain directly above the chosen wall atom pointing perpendicular to the wall
create_atoms  1 single 0 11.9055078897615 17 mol bs 24987 units box remap yes rotate 0 0 0 1
Created 30 atoms
variable      check1 equal 738
# Check that the molecule has indeed been inserted (This check is no longer an issue).
create_bonds  single/bond 2 580 $b
create_bonds  single/bond 2 580 709
next i
jump MDPBB.in loop    # End of the loop
variable      randni equal round(random(1,648,$s))
variable      randni equal round(random(1,648,234897))
variable      randatomi equal 6
variable      randzi equal z[6]
# if the chosen atom is not a surface atom then restart the loop
jump MDPBB.in loop
variable      randni equal round(random(1,648,$s))
variable      randni equal round(random(1,648,234897))
variable      randatomi equal 124
variable      randzi equal z[124]
# if the chosen atom is not a surface atom then restart the loop
jump MDPBB.in loop
variable      randni equal round(random(1,648,$s))
variable      randni equal round(random(1,648,234897))
variable      randatomi equal 212
variable      randzi equal z[212]
# if the chosen atom is not a surface atom then restart the loop
jump MDPBB.in loop
variable      randni equal round(random(1,648,$s))
variable      randni equal round(random(1,648,234897))
variable      randatomi equal 525
variable      randzi equal z[525]
# if the chosen atom is not a surface atom then restart the loop
jump MDPBB.in loop
variable      randni equal round(random(1,648,$s))
variable      randni equal round(random(1,648,234897))
variable      randatomi equal 460
variable      randzi equal z[460]
# if the chosen atom is not a surface atom then restart the loop
set           atom 460 type 4
  1 settings made for type
group         twg id 460
4 atoms in group twg
variable      twgcount equal count(twg)
twg contains 4
print         "i = $(v_i)"                                # The index i should always be equal to the number of atom in twg
i = 4
variable      x0 equal x[460]
variable      y0 equal y[460]
variable      check0 equal 738
variable      b equal 738+1
# Otherwise insert the chain directly above the chosen wall atom pointing perpendicular to the wall
create_atoms  1 single 9.5244063118092 5.5559036818887 17 mol bs 24987 units box remap yes rotate 0 0 0 1
Created 30 atoms
variable      check1 equal 768
# Check that the molecule has indeed been inserted (This check is no longer an issue).
create_bonds  single/bond 2 460 $b
create_bonds  single/bond 2 460 739
next i
jump MDPBB.in loop    # End of the loop
variable      randni equal round(random(1,648,$s))
variable      randni equal round(random(1,648,234897))
variable      randatomi equal 447
variable      randzi equal z[447]
# if the chosen atom is not a surface atom then restart the loop
set           atom 447 type 4
  1 settings made for type
group         twg id 447
5 atoms in group twg
variable      twgcount equal count(twg)
twg contains 5
print         "i = $(v_i)"                                # The index i should always be equal to the number of atom in twg
i = 5
variable      x0 equal x[447]
variable      y0 equal y[447]
variable      check0 equal 768
variable      b equal 768+1
# Otherwise insert the chain directly above the chosen wall atom pointing perpendicular to the wall
create_atoms  1 single 5.5559036818887 4.7622031559046 17 mol bs 24987 units box remap yes rotate 0 0 0 1
Created 30 atoms
variable      check1 equal 798
# Check that the molecule has indeed been inserted (This check is no longer an issue).
create_bonds  single/bond 2 447 $b
create_bonds  single/bond 2 447 769
next i
jump MDPBB.in loop    # End of the loop
variable      randni equal round(random(1,648,$s))
variable      randni equal round(random(1,648,234897))
variable      randatomi equal 362
variable      randzi equal z[362]
# if the chosen atom is not a surface atom then restart the loop
jump MDPBB.in loop
variable      randni equal round(random(1,648,$s))
variable      randni equal round(random(1,648,234897))
variable      randatomi equal 505
variable      randzi equal z[505]
# if the chosen atom is not a surface atom then restart the loop
jump MDPBB.in loop
variable      randni equal round(random(1,648,$s))
variable      randni equal round(random(1,648,234897))
variable      randatomi equal 399
variable      randzi equal z[399]
# if the chosen atom is not a surface atom then restart the loop
set           atom 399 type 4
  1 settings made for type
group         twg id 399
6 atoms in group twg
variable      twgcount equal count(twg)
twg contains 6
print         "i = $(v_i)"                                # The index i should always be equal to the number of atom in twg
i = 6
variable      x0 equal x[399]
variable      y0 equal y[399]
variable      check0 equal 798
variable      b equal 798+1
# Otherwise insert the chain directly above the chosen wall atom pointing perpendicular to the wall
create_atoms  1 single 0.7937005259841 3.1748021039364 17 mol bs 24987 units box remap yes rotate 0 0 0 1
Created 30 atoms
variable      check1 equal 828
# Check that the molecule has indeed been inserted (This check is no longer an issue).
create_bonds  single/bond 2 399 $b
create_bonds  single/bond 2 399 799
next i
jump MDPBB.in loop    # End of the loop
variable      randni equal round(random(1,648,$s))
variable      randni equal round(random(1,648,234897))
variable      randatomi equal 402
variable      randzi equal z[402]
# if the chosen atom is not a surface atom then restart the loop
jump MDPBB.in loop
variable      randni equal round(random(1,648,$s))
variable      randni equal round(random(1,648,234897))
variable      randatomi equal 78
variable      randzi equal z[78]
# if the chosen atom is not a surface atom then restart the loop
jump MDPBB.in loop
variable      randni equal round(random(1,648,$s))
variable      randni equal round(random(1,648,234897))
variable      randatomi equal 564
variable      randzi equal z[564]
# if the chosen atom is not a surface atom then restart the loop
set           atom 564 type 4
  1 settings made for type
group         twg id 564
7 atoms in group twg
variable      twgcount equal count(twg)
twg contains 7
print         "i = $(v_i)"                                # The index i should always be equal to the number of atom in twg
i = 7
variable      x0 equal x[564]
variable      y0 equal y[564]
variable      check0 equal 828
variable      b equal 828+1
# Otherwise insert the chain directly above the chosen wall atom pointing perpendicular to the wall
create_atoms  1 single 7.937005259841 10.3181068377933 17 mol bs 24987 units box remap yes rotate 0 0 0 1
Created 30 atoms
variable      check1 equal 858
# Check that the molecule has indeed been inserted (This check is no longer an issue).
create_bonds  single/bond 2 564 $b
create_bonds  single/bond 2 564 829
next i
jump MDPBB.in loop    # End of the loop
variable      randni equal round(random(1,648,$s))
variable      randni equal round(random(1,648,234897))
variable      randatomi equal 390
variable      randzi equal z[390]
# if the chosen atom is not a surface atom then restart the loop
jump MDPBB.in loop
variable      randni equal round(random(1,648,$s))
variable      randni equal round(random(1,648,234897))
variable      randatomi equal 595
variable      randzi equal z[595]
# if the chosen atom is not a surface atom then restart the loop
set           atom 595 type 4
  1 settings made for type
group         twg id 595
8 atoms in group twg
variable      twgcount equal count(twg)
twg contains 8
print         "i = $(v_i)"                                # The index i should always be equal to the number of atom in twg
i = 8
variable      x0 equal x[595]
variable      y0 equal y[595]
variable      check0 equal 858
variable      b equal 858+1
# Otherwise insert the chain directly above the chosen wall atom pointing perpendicular to the wall
create_atoms  1 single 7.1433047338569 11.1118073637774 17 mol bs 24987 units box remap yes rotate 0 0 0 1
Created 30 atoms
variable      check1 equal 888
# Check that the molecule has indeed been inserted (This check is no longer an issue).
create_bonds  single/bond 2 595 $b
create_bonds  single/bond 2 595 859
next i
jump MDPBB.in loop    # End of the loop
variable      randni equal round(random(1,648,$s))
variable      randni equal round(random(1,648,234897))
variable      randatomi equal 452
variable      randzi equal z[452]
# if the chosen atom is not a surface atom then restart the loop
set           atom 452 type 4
  1 settings made for type
group         twg id 452
9 atoms in group twg
variable      twgcount equal count(twg)
twg contains 9
print         "i = $(v_i)"                                # The index i should always be equal to the number of atom in twg
i = 9
variable      x0 equal x[452]
variable      y0 equal y[452]
variable      check0 equal 888
variable      b equal 888+1
# Otherwise insert the chain directly above the chosen wall atom pointing perpendicular to the wall
create_atoms  1 single 6.3496042078728 5.5559036818887 17 mol bs 24987 units box remap yes rotate 0 0 0 1
Created 30 atoms
variable      check1 equal 918
# Check that the molecule has indeed been inserted (This check is no longer an issue).
create_bonds  single/bond 2 452 $b
create_bonds  single/bond 2 452 889
next i
jump MDPBB.in loop    # End of the loop
variable      randni equal round(random(1,648,$s))
variable      randni equal round(random(1,648,234897))
variable      randatomi equal 582
variable      randzi equal z[582]
# if the chosen atom is not a surface atom then restart the loop
jump MDPBB.in loop
variable      randni equal round(random(1,648,$s))
variable      randni equal round(random(1,648,234897))
variable      randatomi equal 382
variable      randzi equal z[382]
# if the chosen atom is not a surface atom then restart the loop
jump MDPBB.in loop
variable      randni equal round(random(1,648,$s))
variable      randni equal round(random(1,648,234897))
variable      randatomi equal 551
variable      randzi equal z[551]
# if the chosen atom is not a surface atom then restart the loop
set           atom 551 type 4
  1 settings made for type
group         twg id 551
10 atoms in group twg
variable      twgcount equal count(twg)
twg contains 10
print         "i = $(v_i)"                                # The index i should always be equal to the number of atom in twg
i = 10
variable      x0 equal x[551]
variable      y0 equal y[551]
variable      check0 equal 918
variable      b equal 918+1
# Otherwise insert the chain directly above the chosen wall atom pointing perpendicular to the wall
create_atoms  1 single 3.9685026299205 9.5244063118092 17 mol bs 24987 units box remap yes rotate 0 0 0 1
Created 30 atoms
variable      check1 equal 948
# Check that the molecule has indeed been inserted (This check is no longer an issue).
create_bonds  single/bond 2 551 $b
create_bonds  single/bond 2 551 919
next i
jump MDPBB.in loop    # End of the loop

# Rotate the created brush about the centre of the simulation box by 180 degrees to make it true top brush
displace_atoms all rotate $(v_xhi/2.0) $(v_yhi/2.0) $(v_zhi/2.0 - 1) 1 0 0 180 units box
displace_atoms all rotate 7.0710678118655003743 $(v_yhi/2.0) $(v_zhi/2.0 - 1) 1 0 0 180 units box
displace_atoms all rotate 7.0710678118655003743 7.0710678118655003743 $(v_zhi/2.0 - 1) 1 0 0 180 units box
displace_atoms all rotate 7.0710678118655003743 7.0710678118655003743 35 1 0 0 180 units box

variable      ntop0 equal 948

#--- Create the Bottom brush ---#

# Repeating the same procedure as above again but with new atoms

create_atoms  1 region wall
Created 648 atoms
group         bwall region wall
648 atoms in group bwall
variable      nbwall0 equal 648

variable      j loop $M
variable      j loop 10
label         loopj
variable      randnj equal round(random(v_ntop0,$(v_ntop0 + v_nbwall0),$s))
variable      randnj equal round(random(v_ntop0,1596,$s))
variable      randnj equal round(random(v_ntop0,1596,234897))
variable      randatomj equal 1491
variable      randzj equal z[1491]
set           atom 1491 type 4
  1 settings made for type
group         bwg id 1491
1 atoms in group bwg
variable      bwgcount equal count(bwg)
bwg contains 1
print         "j = $(v_j)"
j = 1
variable      x0 equal x[1491]
variable      y0 equal y[1491]
variable      check0 equal 1596
variable      b equal 1596+1
create_atoms  1 single 0.7937005259841 9.5244063118092 17 mol bs 24987 units box remap yes rotate 0 0 0 1
Created 30 atoms
variable      check1 equal 1626
create_bonds  single/bond 2 1491 $b
create_bonds  single/bond 2 1491 1597
next j
jump MDPBB.in loopj
variable      randnj equal round(random(v_ntop0,$(v_ntop0 + v_nbwall0),$s))
variable      randnj equal round(random(v_ntop0,1596,$s))
variable      randnj equal round(random(v_ntop0,1596,234897))
variable      randatomj equal 1217
variable      randzj equal z[1217]
jump MDPBB.in loopj
variable      randnj equal round(random(v_ntop0,$(v_ntop0 + v_nbwall0),$s))
variable      randnj equal round(random(v_ntop0,1596,$s))
variable      randnj equal round(random(v_ntop0,1596,234897))
variable      randatomj equal 1595
variable      randzj equal z[1595]
set           atom 1595 type 4
  1 settings made for type
group         bwg id 1595
2 atoms in group bwg
variable      bwgcount equal count(bwg)
bwg contains 2
print         "j = $(v_j)"
j = 2
variable      x0 equal x[1595]
variable      y0 equal y[1595]
variable      check0 equal 1626
variable      b equal 1626+1
create_atoms  1 single 13.4929089417297 12.6992084157456 17 mol bs 24987 units box remap yes rotate 0 0 0 1
Created 30 atoms
variable      check1 equal 1656
create_bonds  single/bond 2 1595 $b
create_bonds  single/bond 2 1595 1627
next j
jump MDPBB.in loopj
variable      randnj equal round(random(v_ntop0,$(v_ntop0 + v_nbwall0),$s))
variable      randnj equal round(random(v_ntop0,1596,$s))
variable      randnj equal round(random(v_ntop0,1596,234897))
variable      randatomj equal 1580
variable      randzj equal z[1580]
set           atom 1580 type 4
  1 settings made for type
group         bwg id 1580
3 atoms in group bwg
variable      bwgcount equal count(bwg)
bwg contains 3
print         "j = $(v_j)"
j = 3
variable      x0 equal x[1580]
variable      y0 equal y[1580]
variable      check0 equal 1656
variable      b equal 1656+1
create_atoms  1 single 6.3496042078728 13.4929089417297 17 mol bs 24987 units box remap yes rotate 0 0 0 1
Created 30 atoms
variable      check1 equal 1686
create_bonds  single/bond 2 1580 $b
create_bonds  single/bond 2 1580 1657
next j
jump MDPBB.in loopj
variable      randnj equal round(random(v_ntop0,$(v_ntop0 + v_nbwall0),$s))
variable      randnj equal round(random(v_ntop0,1596,$s))
variable      randnj equal round(random(v_ntop0,1596,234897))
variable      randatomj equal 1417
variable      randzj equal z[1417]
jump MDPBB.in loopj
variable      randnj equal round(random(v_ntop0,$(v_ntop0 + v_nbwall0),$s))
variable      randnj equal round(random(v_ntop0,1596,$s))
variable      randnj equal round(random(v_ntop0,1596,234897))
variable      randatomj equal 1557
variable      randzj equal z[1557]
jump MDPBB.in loopj
variable      randnj equal round(random(v_ntop0,$(v_ntop0 + v_nbwall0),$s))
variable      randnj equal round(random(v_ntop0,1596,$s))
variable      randnj equal round(random(v_ntop0,1596,234897))
variable      randatomj equal 1101
variable      randzj equal z[1101]
jump MDPBB.in loopj
variable      randnj equal round(random(v_ntop0,$(v_ntop0 + v_nbwall0),$s))
variable      randnj equal round(random(v_ntop0,1596,$s))
variable      randnj equal round(random(v_ntop0,1596,234897))
variable      randatomj equal 1552
variable      randzj equal z[1552]
set           atom 1552 type 4
  1 settings made for type
group         bwg id 1552
4 atoms in group bwg
variable      bwgcount equal count(bwg)
bwg contains 4
print         "j = $(v_j)"
j = 4
variable      x0 equal x[1552]
variable      y0 equal y[1552]
variable      check0 equal 1686
variable      b equal 1686+1
create_atoms  1 single 9.5244063118092 11.9055078897615 17 mol bs 24987 units box remap yes rotate 0 0 0 1
Created 30 atoms
variable      check1 equal 1716
create_bonds  single/bond 2 1552 $b
create_bonds  single/bond 2 1552 1687
next j
jump MDPBB.in loopj
variable      randnj equal round(random(v_ntop0,$(v_ntop0 + v_nbwall0),$s))
variable      randnj equal round(random(v_ntop0,1596,$s))
variable      randnj equal round(random(v_ntop0,1596,234897))
variable      randatomj equal 1033
variable      randzj equal z[1033]
jump MDPBB.in loopj
variable      randnj equal round(random(v_ntop0,$(v_ntop0 + v_nbwall0),$s))
variable      randnj equal round(random(v_ntop0,1596,$s))
variable      randnj equal round(random(v_ntop0,1596,234897))
variable      randatomj equal 1499
variable      randzj equal z[1499]
set           atom 1499 type 4
  1 settings made for type
group         bwg id 1499
5 atoms in group bwg
variable      bwgcount equal count(bwg)
bwg contains 5
print         "j = $(v_j)"
j = 5
variable      x0 equal x[1499]
variable      y0 equal y[1499]
variable      check0 equal 1716
variable      b equal 1716+1
create_atoms  1 single 3.9685026299205 9.5244063118092 17 mol bs 24987 units box remap yes rotate 0 0 0 1
Created 30 atoms
variable      check1 equal 1746
create_bonds  single/bond 2 1499 $b
create_bonds  single/bond 2 1499 1717
next j
jump MDPBB.in loopj
variable      randnj equal round(random(v_ntop0,$(v_ntop0 + v_nbwall0),$s))
variable      randnj equal round(random(v_ntop0,1596,$s))
variable      randnj equal round(random(v_ntop0,1596,234897))
variable      randatomj equal 1553
variable      randzj equal z[1553]
jump MDPBB.in loopj
variable      randnj equal round(random(v_ntop0,$(v_ntop0 + v_nbwall0),$s))
variable      randnj equal round(random(v_ntop0,1596,$s))
variable      randnj equal round(random(v_ntop0,1596,234897))
variable      randatomj equal 1170
variable      randzj equal z[1170]
jump MDPBB.in loopj
variable      randnj equal round(random(v_ntop0,$(v_ntop0 + v_nbwall0),$s))
variable      randnj equal round(random(v_ntop0,1596,$s))
variable      randnj equal round(random(v_ntop0,1596,234897))
variable      randatomj equal 1117
variable      randzj equal z[1117]
jump MDPBB.in loopj
variable      randnj equal round(random(v_ntop0,$(v_ntop0 + v_nbwall0),$s))
variable      randnj equal round(random(v_ntop0,1596,$s))
variable      randnj equal round(random(v_ntop0,1596,234897))
variable      randatomj equal 1378
variable      randzj equal z[1378]
jump MDPBB.in loopj
variable      randnj equal round(random(v_ntop0,$(v_ntop0 + v_nbwall0),$s))
variable      randnj equal round(random(v_ntop0,1596,$s))
variable      randnj equal round(random(v_ntop0,1596,234897))
variable      randatomj equal 1250
variable      randzj equal z[1250]
jump MDPBB.in loopj
variable      randnj equal round(random(v_ntop0,$(v_ntop0 + v_nbwall0),$s))
variable      randnj equal round(random(v_ntop0,1596,$s))
variable      randnj equal round(random(v_ntop0,1596,234897))
variable      randatomj equal 1042
variable      randzj equal z[1042]
jump MDPBB.in loopj
variable      randnj equal round(random(v_ntop0,$(v_ntop0 + v_nbwall0),$s))
variable      randnj equal round(random(v_ntop0,1596,$s))
variable      randnj equal round(random(v_ntop0,1596,234897))
variable      randatomj equal 1545
variable      randzj equal z[1545]
jump MDPBB.in loopj
variable      randnj equal round(random(v_ntop0,$(v_ntop0 + v_nbwall0),$s))
variable      randnj equal round(random(v_ntop0,1596,$s))
variable      randnj equal round(random(v_ntop0,1596,234897))
variable      randatomj equal 1568
variable      randzj equal z[1568]
set           atom 1568 type 4
  1 settings made for type
group         bwg id 1568
6 atoms in group bwg
variable      bwgcount equal count(bwg)
bwg contains 6
print         "j = $(v_j)"
j = 6
variable      x0 equal x[1568]
variable      y0 equal y[1568]
variable      check0 equal 1746
variable      b equal 1746+1
create_atoms  1 single 1.5874010519682 13.4929089417297 17 mol bs 24987 units box remap yes rotate 0 0 0 1
Created 30 atoms
variable      check1 equal 1776
create_bonds  single/bond 2 1568 $b
create_bonds  single/bond 2 1568 1747
next j
jump MDPBB.in loopj
variable      randnj equal round(random(v_ntop0,$(v_ntop0 + v_nbwall0),$s))
variable      randnj equal round(random(v_ntop0,1596,$s))
variable      randnj equal round(random(v_ntop0,1596,234897))
variable      randatomj equal 1534
variable      randzj equal z[1534]
jump MDPBB.in loopj
variable      randnj equal round(random(v_ntop0,$(v_ntop0 + v_nbwall0),$s))
variable      randnj equal round(random(v_ntop0,1596,$s))
variable      randnj equal round(random(v_ntop0,1596,234897))
variable      randatomj equal 1464
variable      randzj equal z[1464]
set           atom 1464 type 4
  1 settings made for type
group         bwg id 1464
7 atoms in group bwg
variable      bwgcount equal count(bwg)
bwg contains 7
print         "j = $(v_j)"
j = 7
variable      x0 equal x[1464]
variable      y0 equal y[1464]
variable      check0 equal 1776
variable      b equal 1776+1
create_atoms  1 single 3.1748021039364 8.7307057858251 17 mol bs 24987 units box remap yes rotate 0 0 0 1
Created 30 atoms
variable      check1 equal 1806
create_bonds  single/bond 2 1464 $b
create_bonds  single/bond 2 1464 1777
next j
jump MDPBB.in loopj
variable      randnj equal round(random(v_ntop0,$(v_ntop0 + v_nbwall0),$s))
variable      randnj equal round(random(v_ntop0,1596,$s))
variable      randnj equal round(random(v_ntop0,1596,234897))
variable      randatomj equal 1232
variable      randzj equal z[1232]
jump MDPBB.in loopj
variable      randnj equal round(random(v_ntop0,$(v_ntop0 + v_nbwall0),$s))
variable      randnj equal round(random(v_ntop0,1596,$s))
variable      randnj equal round(random(v_ntop0,1596,234897))
variable      randatomj equal 1188
variable      randzj equal z[1188]
jump MDPBB.in loopj
variable      randnj equal round(random(v_ntop0,$(v_ntop0 + v_nbwall0),$s))
variable      randnj equal round(random(v_ntop0,1596,$s))
variable      randnj equal round(random(v_ntop0,1596,234897))
variable      randatomj equal 1402
variable      randzj equal z[1402]
jump MDPBB.in loopj
variable      randnj equal round(random(v_ntop0,$(v_ntop0 + v_nbwall0),$s))
variable      randnj equal round(random(v_ntop0,1596,$s))
variable      randnj equal round(random(v_ntop0,1596,234897))
variable      randatomj equal 1009
variable      randzj equal z[1009]
jump MDPBB.in loopj
variable      randnj equal round(random(v_ntop0,$(v_ntop0 + v_nbwall0),$s))
variable      randnj equal round(random(v_ntop0,1596,$s))
variable      randnj equal round(random(v_ntop0,1596,234897))
variable      randatomj equal 1193
variable      randzj equal z[1193]
jump MDPBB.in loopj
variable      randnj equal round(random(v_ntop0,$(v_ntop0 + v_nbwall0),$s))
variable      randnj equal round(random(v_ntop0,1596,$s))
variable      randnj equal round(random(v_ntop0,1596,234897))
variable      randatomj equal 1231
variable      randzj equal z[1231]
jump MDPBB.in loopj
variable      randnj equal round(random(v_ntop0,$(v_ntop0 + v_nbwall0),$s))
variable      randnj equal round(random(v_ntop0,1596,$s))
variable      randnj equal round(random(v_ntop0,1596,234897))
variable      randatomj equal 1161
variable      randzj equal z[1161]
jump MDPBB.in loopj
variable      randnj equal round(random(v_ntop0,$(v_ntop0 + v_nbwall0),$s))
variable      randnj equal round(random(v_ntop0,1596,$s))
variable      randnj equal round(random(v_ntop0,1596,234897))
variable      randatomj equal 1343
variable      randzj equal z[1343]
set           atom 1343 type 4
  1 settings made for type
group         bwg id 1343
8 atoms in group bwg
variable      bwgcount equal count(bwg)
bwg contains 8
print         "j = $(v_j)"
j = 8
variable      x0 equal x[1343]
variable      y0 equal y[1343]
variable      check0 equal 1806
variable      b equal 1806+1
create_atoms  1 single 13.4929089417297 1.5874010519682 17 mol bs 24987 units box remap yes rotate 0 0 0 1
Created 30 atoms
variable      check1 equal 1836
create_bonds  single/bond 2 1343 $b
create_bonds  single/bond 2 1343 1807
next j
jump MDPBB.in loopj
variable      randnj equal round(random(v_ntop0,$(v_ntop0 + v_nbwall0),$s))
variable      randnj equal round(random(v_ntop0,1596,$s))
variable      randnj equal round(random(v_ntop0,1596,234897))
variable      randatomj equal 1133
variable      randzj equal z[1133]
jump MDPBB.in loopj
variable      randnj equal round(random(v_ntop0,$(v_ntop0 + v_nbwall0),$s))
variable      randnj equal round(random(v_ntop0,1596,$s))
variable      randnj equal round(random(v_ntop0,1596,234897))
variable      randatomj equal 1102
variable      randzj equal z[1102]
jump MDPBB.in loopj
variable      randnj equal round(random(v_ntop0,$(v_ntop0 + v_nbwall0),$s))
variable      randnj equal round(random(v_ntop0,1596,$s))
variable      randnj equal round(random(v_ntop0,1596,234897))
variable      randatomj equal 1003
variable      randzj equal z[1003]
jump MDPBB.in loopj
variable      randnj equal round(random(v_ntop0,$(v_ntop0 + v_nbwall0),$s))
variable      randnj equal round(random(v_ntop0,1596,$s))
variable      randnj equal round(random(v_ntop0,1596,234897))
variable      randatomj equal 1389
variable      randzj equal z[1389]
jump MDPBB.in loopj
variable      randnj equal round(random(v_ntop0,$(v_ntop0 + v_nbwall0),$s))
variable      randnj equal round(random(v_ntop0,1596,$s))
variable      randnj equal round(random(v_ntop0,1596,234897))
variable      randatomj equal 1423
variable      randzj equal z[1423]
set           atom 1423 type 4
  1 settings made for type
group         bwg id 1423
9 atoms in group bwg
variable      bwgcount equal count(bwg)
bwg contains 9
print         "j = $(v_j)"
j = 9
variable      x0 equal x[1423]
variable      y0 equal y[1423]
variable      check0 equal 1836
variable      b equal 1836+1
create_atoms  1 single 2.3811015779523 6.3496042078728 17 mol bs 24987 units box remap yes rotate 0 0 0 1
Created 30 atoms
variable      check1 equal 1866
create_bonds  single/bond 2 1423 $b
create_bonds  single/bond 2 1423 1837
next j
jump MDPBB.in loopj
variable      randnj equal round(random(v_ntop0,$(v_ntop0 + v_nbwall0),$s))
variable      randnj equal round(random(v_ntop0,1596,$s))
variable      randnj equal round(random(v_ntop0,1596,234897))
variable      randatomj equal 1166
variable      randzj equal z[1166]
jump MDPBB.in loopj
variable      randnj equal round(random(v_ntop0,$(v_ntop0 + v_nbwall0),$s))
variable      randnj equal round(random(v_ntop0,1596,$s))
variable      randnj equal round(random(v_ntop0,1596,234897))
variable      randatomj equal 1272
variable      randzj equal z[1272]
jump MDPBB.in loopj
variable      randnj equal round(random(v_ntop0,$(v_ntop0 + v_nbwall0),$s))
variable      randnj equal round(random(v_ntop0,1596,$s))
variable      randnj equal round(random(v_ntop0,1596,234897))
variable      randatomj equal 1227
variable      randzj equal z[1227]
jump MDPBB.in loopj
variable      randnj equal round(random(v_ntop0,$(v_ntop0 + v_nbwall0),$s))
variable      randnj equal round(random(v_ntop0,1596,$s))
variable      randnj equal round(random(v_ntop0,1596,234897))
variable      randatomj equal 1095
variable      randzj equal z[1095]
jump MDPBB.in loopj
variable      randnj equal round(random(v_ntop0,$(v_ntop0 + v_nbwall0),$s))
variable      randnj equal round(random(v_ntop0,1596,$s))
variable      randnj equal round(random(v_ntop0,1596,234897))
variable      randatomj equal 1323
variable      randzj equal z[1323]
set           atom 1323 type 4
  1 settings made for type
group         bwg id 1323
10 atoms in group bwg
variable      bwgcount equal count(bwg)
bwg contains 10
print         "j = $(v_j)"
j = 10
variable      x0 equal x[1323]
variable      y0 equal y[1323]
variable      check0 equal 1866
variable      b equal 1866+1
create_atoms  1 single 5.5559036818887 1.5874010519682 17 mol bs 24987 units box remap yes rotate 0 0 0 1
Created 30 atoms
variable      check1 equal 1896
create_bonds  single/bond 2 1323 $b
create_bonds  single/bond 2 1323 1867
next j
jump MDPBB.in loopj

# Assign the beads to 2 different groups of grafted and non-grafted beads

group         gbeads type 2
20 atoms in group gbeads
group         fbeads type 3
580 atoms in group fbeads

#--- Create harmonic bonds in the walls ---#
bond_coeff    3 harmonic 800.0 $(1.5874 * sqrt(2)/2)
bond_coeff    3 harmonic 800.0 1.1224613044555256103
create_bonds  many bwall bwall 3 0.5 1.2
  update every 1 steps, delay 10 steps, check yes
Added 3240 bonds, new total = 3840
create_bonds  many twall twall 3 0.5 1.2
Added 3240 bonds, new total = 7080

info system

fix           1 twall setforce 0.0 0.0 0.0  # Freeze top wall
fix           2 bwall setforce 0.0 0.0 0.0  # Freeze bottom wall

#dump           1 all image 250 stg0.*.jpg type type zoom 2 view 60 120 bond none none
#dump          2 all atom 50 dump.brush
#dump          3 all custom 100 dump.random.bin id x y z vx vy vz

#--- Minimize the system to obtain the initial structure for the PB bilayer ---#

timestep      0.010
minimize      0.0 1.0e-8 10000 100000
  update every 1 steps, delay 0 steps, check yes
Step Temp E_pair E_mol TotEng Press
0            0 -0.016206966    6.6739299    6.6577229    1.4538666
Loop time of 0.404515 on 1 procs for 82 steps with 1896 atoms

Minimization stats:
  Stopping criterion = linesearch alpha is zero
  Energy initial, next-to-last, final =
  Force two-norm initial, final = 184.799 58.2712
  Force max component initial, final = 30.0334 7.91368
  Final line search alpha, max atom move = 5.45243e-09 4.31488e-08
  Iterations, force evaluations = 82 157

#--- Shrink the simulation box such that it encloses the system exactly ---#

variable z_f equal bound(all,zmin)
variable z_c equal bound(all,zmax)

change_box all z final 0 $(v_z_c + 0.1) units box
change_box all z final 0 70.099999999999994316 units box
  orthogonal box = (0 0 0) to (14.1421 14.1421 70.1)

info variables                              # For diagnostics

minimize      0.0 1.0e-8 10000 100000
Step Temp E_pair E_mol TotEng Press
82            0 -0.058587386    5.2373786    5.1787912    1.6302545
Loop time of 0.107813 on 1 procs for 2 steps with 1896 atoms

Minimization stats:
  Stopping criterion = linesearch alpha is zero
  Energy initial, next-to-last, final =
  Force two-norm initial, final = 58.2712 37.4209
  Force max component initial, final = 7.91368 4.19825
  Final line search alpha, max atom move = 1.1358e-08 4.76837e-08
  Iterations, force evaluations = 2 45

#--- Remove the fixes for the restart file ---#
unfix         1
unfix         2

#--- Write Restart File ---#

write_restart  MDPBB.rst
#write_data     MDPBB.data
print        "Created a Polymer Brush Bilayer with Surface Coverage = $(v_M/(lx*ly))"
Created a Polymer Brush Bilayer with Surface Coverage = 0.049999999999999641953

label          sim

include        ecs.in
# This is an input script that creates a mono disperse polymer brush bilayer
# A coarse grained bead-spring model is used for the polymers which are end
# grafted to the surfaces of 2 opposing FCC walls at random sites.

clear

#--- Read in the Restart file ---#

read_restart    MDPBB.rst
  restoring atom style bond from restart
  orthogonal box = (0 0 0) to (14.1421 14.1421 70.1)
  restoring pair style lj/cut from restart
  restoring bond style hybrid from restart
  1896 atoms
  7080 bonds
  read_restart CPU = 0.0050748 secs
reset_timestep  0

#--- Redefine the bond coeffs ---#

bond_coeff    1 fene 30.0 1.5 0.0 0.0      # Values obtained from literature [Grest, Galushcko]
bond_coeff    2 fene 30.0 1.5 0.0 0.0       # This is the grafting bond between the polymer and the wall atom
bond_coeff    3 harmonic 800.0 $(1.5874 * sqrt(2)/2)
bond_coeff    3 harmonic 800.0 1.1224613044555256103

neigh_modify   every 1 delay 0 check yes

#--- Define variables ---#

# for dimensional values: eps = 4.14e-21 J at T = 300K and sigma = 0.5nm

#--- Moved to main.in ---#
#variable       Tstep     equal 0.005                       # Timestep in Tau (default = 0.005)
#variable       Nequil    equal 10000                       # Number of timesteps to equilibrate
#variable       Ncomp     equal 200000                      # Number of timesteps to compress - until no more occilation of walls
#variable       Nshear    equal 1000000                     # Number of timesteps to shear - use approx 4ns for 10m/s
#variable       Nthermo   equal 1000                        # Number of timesteps between thermo data prints
#variable       Ndump_e   equal 10000
#variable       Ndump_c   equal 10000                       # Number of timesteps per dump file (compression)
#variable       Ndump_s   equal 10000                       # Number of timesteps per dump file (shear)
#variable       Wall_v    equal 0.0002                      # Wall velocity (A/fs) - equal to 10 m/s
#variable       Pcomp     equal 1
variable        Pcomp2    equal 1
variable        Wall_v2   equal 0.5

# For Equilibration - density profiles (10 for entire run)
variable       Nfreqe   equal 300000/10
variable       Neverye  equal 100                           # Use input values every this many timesteps
variable       Nrepeate equal 30000/100

# For compression - density profiles (10 for entire run)
variable       Nfreqc   equal 700000/10
variable       Neveryc  equal 100                          # Use input values every this many timesteps
variable       Nrepeatc equal 70000/100

# For Shear - density profiles (10 for entire run)
variable       Nfreqs   equal 4000000/10
variable       Neverys  equal 100                          # Use input values every this many timesteps
variable       Nrepeats equal 400000/100

variable       binres   equal  0.001                       # Giving 1000 data points across the sim. box

variable       bwzmin  equal bound(bwall,zmin)
variable       bwzmax  equal bound(bwall,zmax)
variable       twzmin  equal bound(twall,zmin)
variable       twzmax  equal bound(twall,zmax)
variable       c       equal count(gbeads)
variable       surfcov equal $(v_M/(lx*ly))
variable       surfcov equal 0.049999999999999641953
variable       D       equal v_twzmin-v_bwzmax
variable       Dout    equal v_twzmax-v_bwzmin
variable       srate   equal (v_Wall_v/v_D)

#--- Define regions and groups ---#

bwzmin = 0
bwzmax = 2.3811015779523
twzmin = 67.6188984220477
twzmax = 70

region         bwallb  block  INF INF INF INF 0 $(v_bwzmin + 0.4) units box
region         bwallb  block  INF INF INF INF 0 0.4000000000000000222 units box
region         bwallm  block  INF INF INF INF $(v_bwzmin + 0.35) $(v_bwzmax - 0.35) units box
region         bwallm  block  INF INF INF INF 0.3499999999999999778 $(v_bwzmax - 0.35) units box
region         bwallm  block  INF INF INF INF 0.3499999999999999778 2.0311015779522998415 units box
region         bwallt  block  INF INF INF INF $(v_bwzmax - 0.7) $(v_bwzmax) units box
region         bwallt  block  INF INF INF INF 1.6811015779522999747 $(v_bwzmax) units box
region         bwallt  block  INF INF INF INF 1.6811015779522999747 2.3811015779522999303 units box
region         bmelt   block  INF INF INF INF $(v_bwzmax) $(v_twzmax / 2) units box
region         bmelt   block  INF INF INF INF 2.3811015779522999303 $(v_twzmax / 2) units box
region         bmelt   block  INF INF INF INF 2.3811015779522999303 35 units box
region         tmelt   block  INF INF INF INF $(v_twzmax / 2)  $(v_twzmin - 0.1) units box
region         tmelt   block  INF INF INF INF 35  $(v_twzmin - 0.1) units box
region         tmelt   block  INF INF INF INF 35  67.518898422047712415 units box
region         twallb  block  INF INF INF INF $(v_twzmin - 0.1) $(v_twzmin + 0.35) units box
region         twallb  block  INF INF INF INF 67.518898422047712415 $(v_twzmin + 0.35) units box
region         twallb  block  INF INF INF INF 67.518898422047712415 67.968898422047701047 units box
region         twallm  block  INF INF INF INF $(v_twzmin + 0.35) $(v_twzmax - 0.35) units box
region         twallm  block  INF INF INF INF 67.968898422047701047 $(v_twzmax - 0.35) units box
region         twallm  block  INF INF INF INF 67.968898422047701047 69.650000000000005684 units box
region         twallt  block  INF INF INF INF $(v_twzmax - 0.35) $(v_twzmax) units box
region         twallt  block  INF INF INF INF 69.650000000000005684 $(v_twzmax) units box
region         twallt  block  INF INF INF INF 69.650000000000005684 70 units box

group          bwsurf  region bwallt
162 atoms in group bwsurf
group          bwbulk  region bwallm
324 atoms in group bwbulk
group          bwout   region bwallb
162 atoms in group bwout
group          bbeads  region bmelt
300 atoms in group bbeads
group          tbeads  region tmelt
300 atoms in group tbeads
group          abeads  union  bbeads tbeads
600 atoms in group abeads
group          twsurf  region twallb
162 atoms in group twsurf
group          twbulk  region twallm
324 atoms in group twbulk
group          twout   region twallt
162 atoms in group twout
group          rest4bot union abeads twall
1248 atoms in group rest4bot
group          rest4top union abeads bwall
1248 atoms in group rest4top
group          walls    union bwall twall
1296 atoms in group walls
group          alltop   union twall tbeads
948 atoms in group alltop
# Other groups are: gbeads fbeads bwall twall

info system
info coeffs

#--- Exclude wall-wall interactions ---#

#neigh_modify exclude type 1 1
#neigh_modify exclude type 1 4
#neigh_modify exclude type 4 4

############
# Computes #
############

#compute         sysTemp   all    temp/deform                       # Calculate the temperature without translational velocities
#compute         sysPress  all    pressure sysTemp                  # Calculate the pressure of the entire system of atoms
compute         melTemp   abeads temp
compute         melPress  all    pressure melTemp
compute         wallTemp  walls  temp
compute         wallPress all    pressure wallTemp
variable        melDens   equal  $(mass(abeads))/(lx*ly*v_D)
variable        melDens   equal  600/(lx*ly*v_D)

#--- Forces and Energies ---#

compute         fbwall  bwall group/group rest4bot
compute         ftwall  twall group/group rest4top
compute         fwalls  bwall group/group twall

#--- Like done in comp_shear.in ---#
group           rest_bot union abeads bwall
1248 atoms in group rest_bot
group           rest_bot2 subtract all bwsurf
1734 atoms in group rest_bot2
compute         ggbot bwsurf group/group rest_bot
compute         ggbot2 bwsurf group/group rest_bot

group           rest_top union abeads twall
1248 atoms in group rest_top
group           rest_top2 subtract all twsurf
1734 atoms in group rest_top2
compute         ggtop twsurf group/group rest_top
compute         ggtop2 twsurf group/group rest_top2

#--- Calculate the applied force on each atom for the pressure applied---#
variable Fcomp equal (1*lx*ly)
variable Fcatom equal (-200.000000000001)/(count(twout))

#compute	        peratom   all   stress/atom NULL
#compute	        p_all     all   reduce sum c_peratom[1] c_peratom[2] c_peratom[3]
#variable	      press_all equal -(c_p_all[1]+c_p_all[2]+c_p_all[3])/(3*v_volume)

info groups variables                              # For diagnostics

#################
# Equilibration #
#################

#--- Number Density profiles (Equil) ---#
compute         eabeads abeads chunk/atom bin/1d z lower 0.001 units reduced
fix             abeads_edz abeads ave/chunk 100 300 30000 eabeads density/number file abeads_edz
compute         ebbeads bbeads chunk/atom bin/1d z lower 0.001 units reduced
fix             bbeads_edz bbeads  ave/chunk 100 300 30000 ebbeads density/number file bbeads_edz
compute         etbeads tbeads chunk/atom bin/1d z lower 0.001 units reduced
fix             tbeads_edz tbeads  ave/chunk 100 300 30000 etbeads density/number file tbeads_edz

#--- Radius of gyration of the bottom brush chains ---#
compute         chunk_bot bbeads chunk/atom molecule
compute         rgbbeads bbeads gyration/chunk chunk_bot
variable        aveRg    equal  (ave(c_rgbbeads))

#--- Fixes (Equil) ---#

# NVE for all and langevin thermostat for melt
fix             nve_melt abeads nve
fix             lang_melt abeads langevin 1 1 0.1 798753
fix             nve_walls  walls nve

#--- Langevin thermostat the bulk of the walls in y ---#
# Only thermostat the bulk of the wall not the surface or the outer layer
compute         Tempyt     twbulk temp/partial 0 1 0
fix             lang_tbulk twbulk langevin 1 1 0.1 87239 zero yes
fix_modify      lang_tbulk temp Tempyt
compute         Tempyb     bwbulk temp/partial 0 1 0
fix             lang_bbulk bwbulk langevin 1 1 0.1 87239 zero yes
fix_modify      lang_bbulk temp Tempyb

#--- Freeze the outer layer of the walls ---#
fix             freeze_bout bwout setforce 0.0 0.0 0.0
fix             freeze_tout twout setforce 0.0 0.0 0.0

variable        sbot equal  f_freeze_bout[1]/(lx*ly)
variable        pbot equal -f_freeze_bout[3]/(lx*ly)
#--- Thermo output ---#

thermo_style  custom step etotal ke pe epair temp c_melTemp c_wallTemp v_Fcatom v_Pcomp2 press pxx pyy pzz pxy pxz pyz c_melPress c_wallPress v_melDens v_surfcov v_aveRg v_Wall_v2 v_srate v_D v_bwzmax zhi c_fbwall[1] c_fbwall[3] c_ftwall[1] c_ftwall[3] v_sbot v_pbot #c_ggbot[1] c_ggbot[3] c_ggtop[1] c_ggtop[3]
thermo        1000
thermo_modify flush yes

#--- Dumps ---#

#--- Run Equilibration ---#
timestep    0.005
run         300000
  update every 1 steps, delay 0 steps, check yes
Step TotEng KinEng PotEng E_pair Temp c_melTemp c_wallTemp v_Fcatom v_Pcomp2 Press Pxx Pyy Pzz Pxy Pxz Pyz c_melPress c_wallPress v_melDens v_surfcov v_aveRg v_Wall_v2 v_srate v_D v_bwzmax Zhi c_fbwall[1] c_fbwall[3] c_ftwall[1] c_ftwall[3] v_sbot v_pbot
0    5.8819948            0    5.8819948 -0.058173978            0            0            0   -1.2345679            1    1.4811838    2.1218011    2.1218011   0.19994919 -2.5337733e-17 8.9315669e-07 5.9543778e-07    1.4811838    1.4811838  0.045985612         0.05    3.5566076          0.5 0.0076642686    65.237797    2.3811016         70.1            0            0            0            0 2.8421709e-16    21.633403
Averages over the last 151 of 301 rows, steps 150000 to 300000:
TotEng KinEng PotEng E_pair Temp c_melTemp c_wallTemp v_Fcatom v_Pcomp2 Press Pxx Pyy Pzz Pxy Pxz Pyz c_melPress c_wallPress v_melDens v_surfcov v_aveRg v_Wall_v2 v_srate v_D v_bwzmax Zhi c_fbwall[1] c_fbwall[3] c_ftwall[1] c_ftwall[3] v_sbot v_pbot
4.28175 1.24784 3.03391 -0.120196 0.832332 1.00565 0.752809 -1.23457 1 1.12886 1.70222 1.70243 -0.0180724 -0.00176799 -0.0037749 -0.000541188 1.05932 1.08589 0.0461344 0.05 1.63862 0.5 0.00768907 65.0274 2.48727 70.1 0.000692745 -0.0807408 -0.00100354 0.0801689 0.181617 -0.29397
Loop time of 81.4803 on 1 procs for 300000 steps with 1896 atoms

#undump      eq

#--- Unfix Equil ---#

unfix abeads_edz
unfix bbeads_edz
unfix tbeads_edz

unfix freeze_tout

###############
# Compression #
###############

#--- Bring the brushes closer together fit the sim box ---#

variable       bbzmax  equal bound(bbeads,zmax)
variable       tbzmin  equal bound(tbeads,zmin)
displace_atoms  alltop move 0.0 0.0 -$(v_tbzmin - v_bbzmax) units box
displace_atoms  alltop move 0.0 0.0 -40.91383518381750406 units box
variable z_f equal bound(all,zmin)
variable z_c equal bound(all,zmax)
change_box all z final 0 $(v_z_c + 0.1) units box
change_box all z final 0 29.186164816182500914 units box
  orthogonal box = (0 0 0) to (14.1421 14.1421 29.1862)

print         "D = $D"
D = 24.1084790351051
print         "D = $(v_twzmin - v_bwzmax)"
D = 24.108479035105141008
info variables

#--- Computes ---#

# Number density profiles

compute         cabeads abeads chunk/atom bin/1d z lower 0.001 units reduced
fix             abeads_cdz abeads  ave/chunk 100 700 70000 cabeads density/number file abeads_cdz
compute         cbbeads bbeads chunk/atom bin/1d z lower 0.001 units reduced
fix             bbeads_cdz bbeads  ave/chunk 100 700 70000 cbbeads density/number file bbeads_cdz
compute         ctbeads tbeads chunk/atom bin/1d z lower 0.001 units reduced
fix             tbeads_cdz tbeads  ave/chunk 100 700 70000 ctbeads density/number file tbeads_cdz

#--- Fixes ---#
fix             freeze_tout twout setforce 0.0 0.0 NULL
fix             comp_tout twout aveforce 0.0 0.0 -1.23456790123457
fix             rwalls all wall/reflect zlo EDGE zhi EDGE

#--- Dumps ---#

#--- Run Compression ---#
timestep    0.005
run         700000
Step TotEng KinEng PotEng E_pair Temp c_melTemp c_wallTemp v_Fcatom v_Pcomp2 Press Pxx Pyy Pzz Pxy Pxz Pyz c_melPress c_wallPress v_melDens v_surfcov v_aveRg v_Wall_v2 v_srate v_D v_bwzmax Zhi c_fbwall[1] c_fbwall[3] c_ftwall[1] c_ftwall[3] v_sbot v_pbot
300000    4.2854583    1.2582853     3.027173  -0.12923353   0.83929953    1.0160894   0.75817381   -1.2345679            1    2.7633846    4.0967412    4.1618784   0.03153412 0.0055799525  -0.24019656  -0.04796204    2.5951824    2.6591164   0.12443755         0.05    1.6280553          0.5  0.020739591    24.108479    2.4979209    29.186165 -0.012257376 -0.071776817 0.0050028598  0.040503126 -0.056264758    3.4572191
Averages over the last 351 of 701 rows, steps 650000 to 1000000:
TotEng KinEng PotEng E_pair Temp c_melTemp c_wallTemp v_Fcatom v_Pcomp2 Press Pxx Pyy Pzz Pxy Pxz Pyz c_melPress c_wallPress v_melDens v_surfcov v_aveRg v_Wall_v2 v_srate v_D v_bwzmax Zhi c_fbwall[1] c_fbwall[3] c_ftwall[1] c_ftwall[3] v_sbot v_pbot
4.17865 1.24246 2.93619 -0.180965 0.828741 1.00126 0.749582 -1.23457 1 2.96959 4.28865 4.28588 0.334221 0.00203642 -0.00498935 0.00917995 2.80329 2.86684 0.650496 0.05 1.29024 0.5 0.108416 4.61328 2.4854 29.1862 0.000633085 -0.186152 0.00115984 0.184312 -0.225572 1.25453
Loop time of 218.102 on 1 procs for 700000 steps with 1896 atoms

#undump      comp

unfix abeads_cdz
unfix bbeads_cdz
unfix tbeads_cdz

###############
# Shearing    #
###############

#--- Keep only thermostat on walls ---#
unfix lang_melt

#variable    vtop equal (v_Wall_v/2)
#variable    vbot equal -(v_Wall_v/2)
velocity    twout set $(v_Wall_v/2) 0.0 0.0  units box
velocity    twout set 0.25 0.0 0.0  units box
velocity    bwout set -$(v_Wall_v/2) 0.0 0.0  units box
velocity    bwout set -0.25 0.0 0.0  units box

#--- Number Density profiles ---#

compute         sabeads abeads chunk/atom bin/1d z lower 0.001 units reduced
fix             abeads_sdz abeads  ave/chunk 100 4000 400000 sabeads density/number file abeads_sdz
compute         sbbeads bbeads chunk/atom bin/1d z lower 0.001 units reduced
fix             bbeads_sdz bbeads  ave/chunk 100 4000 400000 sbbeads density/number file bbeads_sdz
compute         stbeads tbeads chunk/atom bin/1d z lower 0.001 units reduced
fix             tbeads_sdz tbeads  ave/chunk 100 4000 400000 stbeads density/number file tbeads_sdz

#--- Temperature and Velocity profiles ---#
compute        eall all chunk/atom bin/1d z lower 0.001 units reduced
#compute        biasT all temp/profile 1 1 1 xyz 100 100 100
fix            temp_prof   all ave/chunk 100 4000 400000 eall temp file temp_sz
fix            vel_prof_x_s all ave/chunk 100 4000 400000 eall vx vy file velp_sz
#--- Ave s_bot and p_bot ---#

fix             fc_ave all ave/time 100 4000 400000 v_sbot v_pbot file fc_ave.dump

#--- Dumps ---#

#--- Run Shear ---#
timestep    0.005
run         4000000
Step TotEng KinEng PotEng E_pair Temp c_melTemp c_wallTemp v_Fcatom v_Pcomp2 Press Pxx Pyy Pzz Pxy Pxz Pyz c_melPress c_wallPress v_melDens v_surfcov v_aveRg v_Wall_v2 v_srate v_D v_bwzmax Zhi c_fbwall[1] c_fbwall[3] c_ftwall[1] c_ftwall[3] v_sbot v_pbot
1000000    4.1730816    1.2596161    2.9134655   -0.1875487   0.84018721    1.0149884   0.75998202   -1.2345679            1    2.6306774    4.0409181    4.0620874  -0.21097312  0.027025291 -0.085588674  0.087533618    2.4620742    2.5265223   0.64342128         0.05    1.3097402          0.5   0.10723688    4.6625751    2.4712626    29.186165 -0.023477718  -0.17647768 -0.0075757626   0.19359708   -3.0733959   -5.6534332
Averages over the last 2001 of 4001 rows, steps 3000000 to 5000000:
TotEng KinEng PotEng E_pair Temp c_melTemp c_wallTemp v_Fcatom v_Pcomp2 Press Pxx Pyy Pzz Pxy Pxz Pyz c_melPress c_wallPress v_melDens v_surfcov v_aveRg v_Wall_v2 v_srate v_D v_bwzmax Zhi c_fbwall[1] c_fbwall[3] c_ftwall[1] c_ftwall[3] v_sbot v_pbot
4.44491 1.41618 3.02873 -0.159287 0.944622 1.2524 0.80299 -1.23457 1 2.96152 4.2639 4.29173 0.328921 -0.00224633 -0.0378696 0.000392179 2.78337 2.833 0.631286 0.05 1.97089 0.5 0.105214 4.75375 2.48599 29.1862 -0.00115143 -0.189245 0.000114484 0.18837 0.105312 1.05109
Loop time of 1260.01 on 1 procs for 4000000 steps with 1896 atoms
